%chk=speciationDFT114.chk
%nprocshared=32
%mem=64GB
#p opt=loose wb97xd/gen scf=xqc freq

speciation study

0 1
Mg -2.856341 -0.438519 -0.033468
C -0.447208 4.664795 -1.099323
C -1.619909 3.640298 0.716337
O -1.499995 4.750113 -0.159486
C -0.823503 3.749693 -2.259791
C -0.607111 3.725772 1.851574
H -0.341071 5.715066 -1.423530
H 0.489501 4.344983 -0.608054
H -2.658813 3.750830 1.079642
H -1.537106 2.682707 0.163453
H -0.673520 4.681383 2.374527
H -0.789764 2.918888 2.580271
H 0.419377 3.610491 1.488174
H -1.774631 4.051897 -2.708470
H -0.055044 3.750116 -3.036965
H -0.951254 2.707936 -1.917849
H -4.044814 0.201860 -2.295582
C -4.099651 2.005443 -1.064358
C -4.276905 0.532256 -1.295529
C -4.984134 2.858622 -2.005238
H -4.340829 2.265253 -0.014592
H -3.040494 2.299565 -1.223284
H -4.707623 2.653127 -3.052013
H -6.037213 2.553101 -1.901343
C -4.824074 4.349418 -1.693452
H -5.233857 0.142131 -0.984427
H -5.260978 4.596374 -0.721239
H -3.759634 4.623714 -1.636619
H -5.295868 4.977157 -2.449055
C -1.540230 0.567070 3.498607
C -2.831090 0.829506 3.026468
C -3.267046 -0.355849 2.361715
C -2.172541 -1.271875 2.465665
N -1.135195 -0.712614 3.156412
C -2.064709 -2.652173 1.871644
N -2.489130 -2.675618 0.471543
C -3.627006 -3.481760 0.150818
H -3.397233 1.717292 3.148145
H -0.893550 1.200807 4.061885
H -4.279735 -0.578093 2.094837
H -2.609656 -3.367525 2.521497
H -0.991111 -2.969831 1.888938
C -4.964015 -3.049559 0.844314
C -3.841072 -3.375092 -1.390004
C -3.401150 -4.994200 0.492648
H -5.249116 -2.046124 0.514053
H -5.774414 -3.733369 0.613082
H -4.824650 -3.014900 1.926596
H -2.920923 -3.663150 -1.906985
H -4.652969 -4.015837 -1.722401
H -4.074839 -2.342731 -1.677759
H -2.436293 -5.307983 0.085944
H -3.370649 -5.141446 1.571921
H -4.183886 -5.620496 0.076697
Mg 3.422183 -0.639736 0.532585
C -0.824806 -0.029919 -2.095761
C 0.012443 0.259489 0.156595
O -1.068924 0.447905 -0.766681
C -0.633737 -1.529490 -2.138543
C 1.150249 1.208059 -0.187009
H -1.741923 0.307797 -2.619402
H 0.055783 0.511039 -2.489425
H -0.470873 0.510796 1.129322
H 0.329754 -0.806041 0.161659
H 0.780994 2.175853 -0.542660
H 1.774804 1.414393 0.693522
H 1.778365 0.806621 -1.011247
H -1.248719 -2.067824 -1.382723
H -0.867583 -1.952628 -3.111328
H 0.416664 -1.798425 -1.886287
H 2.594665 -0.183009 2.964254
C 4.551387 0.785030 2.882779
C 3.605137 -0.358208 2.601748
C 4.120523 2.081156 2.168508
H 4.605027 0.973117 3.972411
H 5.580898 0.521255 2.576361
H 4.216202 1.956463 1.066013
H 3.053053 2.280849 2.377560
C 4.974335 3.273846 2.611302
H 3.956485 -1.307603 2.986217
H 4.876101 3.457274 3.683867
H 6.033003 3.096781 2.398993
H 4.679748 4.186080 2.084514
C 4.823371 1.840824 -1.936246
C 5.625559 1.140462 -1.028745
C 5.192162 -0.219406 -1.068903
C 4.124357 -0.242518 -2.025577
N 3.906644 0.999710 -2.546472
C 3.268476 -1.432511 -2.364310
N 2.550486 -1.874393 -1.163997
C 2.604043 -3.269956 -0.832305
H 6.413317 1.525328 -0.432379
H 4.846689 2.878315 -2.180181
H 5.723788 -1.057570 -0.673651
H 3.899984 -2.217259 -2.829733
H 2.510099 -1.142161 -3.130388
C 4.029758 -3.763475 -0.387910
C 1.628112 -3.478927 0.355128
C 2.149975 -4.191134 -2.006054
H 4.333230 -3.278038 0.543470
H 4.042948 -4.837764 -0.228440
H 4.764049 -3.514866 -1.154794
H 0.604548 -3.193757 0.059492
H 1.609613 -4.515331 0.682811
H 1.888470 -2.847733 1.214329
H 1.176591 -3.851000 -2.374950
H 2.855100 -4.147269 -2.834750
H 2.053443 -5.225681 -1.685189

-C 0
6-31g(d,p)
****
-Mg 0
6-31g(d,p)
****
-N 0
6-31+g(d,p)
****
-H 0
6-31g(d,p)
****
-O 0
6-31+g(d,p)
****


