%chk=speciationDFT158.chk
%nprocshared=32
%mem=64GB
#p opt=loose wb97xd/gen scf=xqc freq

speciation study

0 1
Mg -0.073027 0.435058 -0.296879
C -3.170818 1.188174 -2.401139
C -4.520315 0.992287 -2.048820
C -4.540220 0.792560 -0.643909
C -3.199560 0.882004 -0.217705
N -2.370667 1.137929 -1.284821
C -2.656189 0.772017 1.181050
N -1.489904 -0.081866 1.382942
C -1.683382 -1.510721 1.310800
H -5.357153 0.991729 -2.694887
H -2.757045 1.364740 -3.366244
H -5.391303 0.606686 -0.045804
H -3.488216 0.492472 1.865012
H -2.320585 1.792079 1.504307
C -2.006626 -2.054168 -0.113239
C -0.336689 -2.149469 1.765657
C -2.809873 -2.015562 2.271403
H -1.168827 -1.876132 -0.808316
H -2.207087 -3.120580 -0.106306
H -2.880093 -1.530113 -0.522684
H -0.031775 -1.733779 2.727696
H -0.415670 -3.229892 1.846670
H 0.464654 -1.927484 1.038629
H -2.663072 -1.585391 3.262474
H -3.785879 -1.694724 1.903193
H -2.808540 -3.098855 2.350262
C 2.086033 -2.670163 -1.166546
C 3.490227 -2.704956 -1.074545
C 3.927519 -1.357400 -1.154266
C 2.761648 -0.576367 -1.292618
N 1.642258 -1.376277 -1.319065
C 2.656933 0.916891 -1.436581
N 1.821862 1.621735 -0.469667
C 2.339811 1.805137 0.862230
H 4.104280 -3.559185 -0.968764
H 1.401096 -3.485499 -1.143492
H 4.926228 -1.014760 -1.112138
H 3.683016 1.344837 -1.475873
H 2.185272 1.141278 -2.429611
C 3.640209 2.680436 0.865688
C 1.237794 2.574267 1.655078
C 2.659201 0.497772 1.642690
H 3.467638 3.583484 0.279470
H 3.931478 2.957505 1.873811
H 4.460543 2.130110 0.403469
H 0.371753 1.917886 1.858773
H 1.610776 2.935539 2.607763
H 0.878327 3.419007 1.060649
H 1.754020 -0.120651 1.738131
H 3.385473 -0.105481 1.084503
H 3.047958 0.697391 2.634762

-H 0
6-31g(d,p)
****
-C 0
6-31g(d,p)
****
-Mg 0
6-31g(d,p)
****
-N 0
6-31+g(d,p)
****


