%chk=speciationDFT159.chk
%nprocshared=32
%mem=64GB
#p opt=loose wb97xd/gen scf=xqc freq

speciation study

0 1
Mg 0.440093 0.339767 -0.549636
C -2.383147 -2.347751 1.706899
C -3.771848 -2.314767 1.471075
C -3.947641 -1.590043 0.265830
C -2.652893 -1.221185 -0.162614
N -1.700202 -1.690630 0.709664
C -2.305789 -0.468635 -1.415189
N -1.596743 0.802988 -1.297084
C -2.182142 1.831206 -0.469470
H -4.533855 -2.740712 2.066797
H -1.864026 -2.804107 2.516729
H -4.865947 -1.371930 -0.209722
H -3.242456 -0.322098 -2.004170
H -1.644475 -1.113113 -2.052121
C -1.777375 1.717935 1.035081
C -1.626448 3.190972 -1.005684
C -3.734523 1.890942 -0.536179
H -0.712232 1.940526 1.186955
H -2.346916 2.396678 1.661577
H -1.973912 0.688423 1.380088
H -1.934481 3.332146 -2.041429
H -1.977585 4.025564 -0.406331
H -0.529867 3.178421 -0.986454
H -4.068746 1.911159 -1.573238
H -4.151903 0.988789 -0.067198
H -4.126768 2.761998 -0.019525
C 2.630703 2.503337 1.848119
C 1.760851 2.988073 0.868053
C 1.957466 2.173377 -0.290511
C 2.956557 1.218605 0.095008
N 3.367014 1.424111 1.377033
C 3.438719 0.084255 -0.769024
N 2.345145 -0.810221 -1.153814
C 2.240378 -2.052580 -0.423101
H 1.091486 3.807123 0.946450
H 2.768186 2.850488 2.845906
H 1.660723 2.424024 -1.292136
H 4.283907 -0.434135 -0.271310
H 3.846703 0.505661 -1.718703
C 1.911336 -1.873902 1.090358
C 1.077051 -2.846509 -1.080290
C 3.539705 -2.923467 -0.530710
H 0.851912 -1.589904 1.232255
H 2.064163 -2.791572 1.650045
H 2.539465 -1.087499 1.525091
H 1.210369 -2.888363 -2.161628
H 1.007560 -3.854871 -0.679685
H 0.104923 -2.355750 -0.878882
H 3.853805 -2.971139 -1.573376
H 4.346766 -2.474140 0.047606
H 3.369818 -3.931784 -0.164466

-H 0
6-31g(d,p)
****
-C 0
6-31g(d,p)
****
-Mg 0
6-31g(d,p)
****
-N 0
6-31+g(d,p)
****


