%chk=speciationDFT53.chk
%nprocshared=32
%mem=64GB
#p opt=loose wb97xd/gen scf=xqc freq

speciation study

0 1
Mg -0.465415 0.000051 -1.021463
C -1.293459 2.971808 0.998740
C -3.310351 1.736219 0.559114
O -1.940684 1.929572 0.303694
C -1.288218 2.762168 2.510454
C -4.161112 2.848623 -0.059623
H -0.264776 2.875215 0.564781
H -1.721942 3.943668 0.717678
H -3.474600 0.761120 0.036586
H -3.507771 1.617633 1.633960
H -3.844983 3.016380 -1.098701
H -5.218154 2.582771 -0.067715
H -4.043477 3.790674 0.477635
H -1.033769 1.708480 2.735528
H -0.537250 3.388575 2.994773
H -2.256935 2.974619 2.960535
H -2.880679 0.456961 -1.995314
C -2.976063 -1.589538 -1.210500
C -2.361999 -0.482789 -2.002394
C -4.366480 -1.998879 -1.778102
H -2.306719 -2.474822 -1.202210
H -3.095311 -1.308616 -0.146111
H -5.018123 -1.112877 -1.811495
H -4.243023 -2.328822 -2.820845
C -5.011710 -3.106659 -0.938279
H -2.032666 -0.747655 -2.990755
H -4.359204 -3.985959 -0.899898
H -5.163829 -2.770823 0.092299
H -5.975406 -3.414005 -1.344009
C 4.523680 -1.124370 -1.204242
C 4.822315 -1.163365 0.172521
C 3.649386 -1.636739 0.811902
C 2.693774 -1.844969 -0.208901
N 3.235113 -1.548893 -1.439356
C 1.313207 -2.444402 -0.113778
N 0.198489 -1.693265 0.438254
C 0.229594 -1.280886 1.799967
H 5.731463 -0.894697 0.638851
H 5.154475 -0.822240 -2.005357
H 3.525387 -1.798972 1.849875
H 1.420281 -3.421234 0.420784
H 0.980083 -2.697760 -1.156060
C 1.019704 0.043994 2.056771
C -1.264641 -1.009906 2.215659
C 0.784029 -2.356793 2.795239
H 0.559375 0.864609 1.499222
H 1.081302 0.297820 3.106420
H 2.035576 -0.074834 1.649568
H -1.840287 -1.927790 2.095316
H -1.335849 -0.664292 3.240135
H -1.698187 -0.261966 1.542930
H 0.259617 -3.299059 2.643272
H 1.845189 -2.525422 2.587870
H 0.672503 -2.042804 3.827081
H 0.662317 1.554259 -2.740811
C 1.898220 1.773629 -0.960481
C 0.586103 1.759074 -1.683238
C 2.882063 2.825018 -1.535092
H 1.766551 1.959762 0.119768
H 2.381895 0.765040 -1.031445
H 2.984578 2.657275 -2.619775
H 2.471743 3.836511 -1.410609
C 4.246912 2.697567 -0.851072
H -0.066955 2.591030 -1.497286
H 4.187789 2.970416 0.204691
H 4.575990 1.640571 -0.881695
H 5.009311 3.306341 -1.331730

-C 0
6-31g(d,p)
****
-Mg 0
6-31g(d,p)
****
-N 0
6-31+g(d,p)
****
-H 0
6-31g(d,p)
****
-O 0
6-31+g(d,p)
****


