%chk=speciationDFT2.chk
%nprocshared=32
%mem=64GB
#p opt=loose wb97xd/gen scf=xqc freq

speciation study

0 1
Mg -0.546233 0.338690 0.472401
C -1.324521 1.009973 -2.351308
C 0.616063 -0.424345 -2.029465
O -0.160733 0.691001 -1.596899
C -2.297820 -0.144995 -2.452334
C 1.244109 -0.164768 -3.389368
H -1.746082 1.852567 -1.747304
H -0.996952 1.381144 -3.333546
H 1.407778 -0.458608 -1.213267
H 0.014576 -1.346817 -2.003747
H 1.665065 0.846928 -3.433981
H 2.077486 -0.862573 -3.548020
H 0.533628 -0.280639 -4.207791
H -2.386630 -0.664330 -1.469824
H -3.316991 0.216028 -2.644489
H -2.025182 -0.874943 -3.211009
C 3.975125 -2.128014 -0.981737
C 5.098033 -1.431189 -0.493719
C 4.623470 -0.614811 0.562329
C 3.233035 -0.853919 0.653741
N 2.841308 -1.785128 -0.278882
C 2.284766 -0.281848 1.672222
N 1.437208 0.848081 1.336160
C 2.021004 2.071981 0.888357
H 6.094637 -1.500342 -0.839427
H 3.936053 -2.840065 -1.770868
H 5.197265 0.045410 1.156474
H 2.889757 -0.029598 2.579551
H 1.577547 -1.093649 1.988403
C 2.705916 2.046296 -0.511506
C 0.857737 3.114837 0.806202
C 3.086345 2.613631 1.903768
H 1.980013 1.803215 -1.287825
H 3.179427 2.991576 -0.749866
H 3.469543 1.255840 -0.530643
H 0.275808 3.095338 1.733893
H 1.238031 4.119236 0.648656
H 0.180587 2.876161 -0.026825
H 2.661776 2.622107 2.907466
H 3.951681 1.945896 1.906769
H 3.417646 3.612697 1.642101
C -3.709746 2.673392 -0.433675
C -2.688402 2.932429 0.488766
C -2.451399 1.710278 1.184815
C -3.358572 0.768949 0.609866
N -4.122519 1.351122 -0.363498
C -3.465952 -0.689112 0.956393
N -2.118474 -1.231254 1.059525
C -1.913500 -2.616437 0.844788
H -2.195221 3.854817 0.661444
H -4.166391 3.342932 -1.123886
H -1.911090 1.602845 2.111356
H -4.106505 -1.213065 0.212735
H -3.989930 -0.792039 1.937327
C -2.299181 -3.151945 -0.586291
C -0.402542 -2.882402 1.060078
C -2.727329 -3.501610 1.862774
H -1.670947 -2.669076 -1.336427
H -2.153057 -4.225254 -0.652448
H -3.340168 -2.924262 -0.805425
H -0.094589 -2.512105 2.045709
H -0.159127 -3.939021 0.989488
H 0.218924 -2.353110 0.315644
H -2.520949 -3.149421 2.874838
H -3.794780 -3.397589 1.682659
H -2.454473 -4.548489 1.787171

-C 0
6-31g(d,p)
****
-Mg 0
6-31g(d,p)
****
-N 0
6-31+g(d,p)
****
-H 0
6-31g(d,p)
****
-O 0
6-31+g(d,p)
****


