%chk=speciationDFT133.chk
%nprocshared=32
%mem=64GB
#p opt=loose wb97xd/gen scf=xqc freq

speciation study

0 1
Mg 1.829333 0.592822 0.986203
C -0.428193 2.104170 0.045744
C -0.986894 1.273880 2.234870
O -0.252446 1.036014 1.006095
C 0.382933 3.325188 0.434874
C -0.139678 0.818612 3.405496
H -0.039278 1.629560 -0.899617
H -1.524911 2.304239 -0.030438
H -1.270027 2.339663 2.304345
H -1.933874 0.693374 2.113437
H 0.666015 1.526979 3.632965
H -0.754942 0.720887 4.305226
H 0.311438 -0.173428 3.225785
H 1.444665 3.217387 0.142202
H 0.013389 4.214345 -0.087557
H 0.341861 3.527100 1.509725
H 2.435660 2.493778 2.690547
C 4.376994 1.738187 2.071644
C 2.948752 1.556233 2.523381
C 4.467919 2.532056 0.758384
H 4.960460 2.262548 2.853128
H 4.868753 0.753835 1.945097
H 3.941287 1.991108 -0.068088
H 3.938034 3.493923 0.856904
C 5.923314 2.762721 0.341959
H 2.860335 0.915045 3.388210
H 6.454117 3.392836 1.056029
H 6.457706 1.811016 0.255524
H 5.961825 3.241019 -0.644701
C 2.880367 2.713147 -2.363617
C 4.067741 2.148875 -2.870019
C 3.951523 0.750502 -2.681101
C 2.702042 0.537322 -2.062192
N 2.043595 1.734827 -1.879787
C 2.045955 -0.767236 -1.721291
N 2.115475 -1.216452 -0.331556
C 3.283973 -1.951941 0.076972
H 4.883354 2.660805 -3.308478
H 2.598329 3.739799 -2.339231
H 4.663757 0.018321 -2.958146
H 0.942542 -0.676456 -1.934911
H 2.431310 -1.544055 -2.419888
C 4.641540 -1.251365 -0.198583
C 3.162952 -2.190806 1.615490
C 3.351136 -3.363752 -0.602660
H 4.570604 -0.182394 0.049065
H 5.456446 -1.692348 0.366063
H 4.883748 -1.289626 -1.263645
H 2.137753 -2.496495 1.859767
H 3.845605 -2.967929 1.949197
H 3.397708 -1.277976 2.176024
H 2.474283 -3.950708 -0.328053
H 3.362207 -3.257043 -1.688736
H 4.244254 -3.903417 -0.300045
Mg -1.234764 -0.770353 0.009197
C -2.459966 -3.029137 -1.746691
C -0.099583 -3.435806 -1.421923
O -1.164144 -2.512224 -1.516244
C -2.951122 -3.911526 -0.606213
C 0.319888 -3.892763 -2.816295
H -3.050415 -2.061060 -1.800788
H -2.482475 -3.543749 -2.715719
H 0.695141 -2.801589 -0.927543
H -0.351618 -4.278128 -0.765043
H 0.441324 -3.019089 -3.474190
H 1.279263 -4.414780 -2.782456
H -0.419982 -4.552374 -3.270413
H -2.674481 -3.455824 0.362965
H -4.039515 -4.001659 -0.622258
H -2.520791 -4.912264 -0.636920
H -0.497778 -3.005468 1.126165
C -1.827674 -2.160504 2.626836
C -0.710126 -2.070887 1.627987
C -1.572464 -3.244569 3.707144
H -1.991521 -1.187636 3.130070
H -2.787405 -2.396310 2.123826
H -2.494451 -3.428059 4.281265
H -1.319564 -4.197238 3.211861
C -0.440417 -2.836451 4.653633
H 0.218144 -1.666323 2.016880
H 0.483358 -2.661530 4.083362
H -0.681467 -1.907930 5.179987
H -0.237402 -3.606427 5.398488
C -4.138354 3.324914 1.673256
C -5.391827 3.486521 1.053582
C -5.585657 2.334902 0.252684
C -4.432216 1.534808 0.426412
N -3.556356 2.132883 1.296960
C -4.212133 0.174717 -0.177946
N -3.087027 -0.048378 -1.068121
C -3.015484 0.675378 -2.299806
H -6.058361 4.301289 1.159477
H -3.648168 3.984745 2.348419
H -6.421945 2.123379 -0.358626
H -5.161996 -0.115555 -0.694383
H -4.081977 -0.557611 0.661289
C -3.228417 2.209153 -2.212141
C -1.615761 0.417080 -2.928534
C -4.090235 0.135652 -3.322638
H -2.638804 2.629770 -1.389732
H -2.970670 2.714861 -3.137324
H -4.269644 2.438244 -1.959909
H -1.417841 -0.655028 -3.016138
H -1.545865 0.852248 -3.924692
H -0.816227 0.870516 -2.324964
H -3.947294 -0.930149 -3.486300
H -5.088249 0.284541 -2.910232
H -4.022633 0.656754 -4.272405

-C 0
6-31g(d,p)
****
-Mg 0
6-31g(d,p)
****
-N 0
6-31+g(d,p)
****
-H 0
6-31g(d,p)
****
-O 0
6-31+g(d,p)
****


