%chk=speciationDFT10.chk
%nprocshared=32
%mem=64GB
#p opt=loose wb97xd/gen scf=xqc freq

speciation study

0 1
Mg 0.924566 -1.020269 0.268468
H 3.195291 -2.233207 -0.210405
C 3.296880 -0.542138 -1.592185
C 2.606123 -1.705244 -0.937873
C 3.633858 0.570881 -0.579917
H 4.225606 -0.871899 -2.096431
H 2.649558 -0.119544 -2.386474
H 2.671931 1.052697 -0.244718
H 4.088969 0.136887 0.322516
C 4.556822 1.634756 -1.189042
H 2.118238 -2.376182 -1.623100
H 5.508561 1.205107 -1.503533
H 4.083279 2.089077 -2.065335
H 4.760264 2.431875 -0.470796
C -3.503927 -0.027802 -1.669766
C -3.975366 1.268131 -1.379507
C -2.827543 2.041332 -1.075298
C -1.719699 1.167805 -1.190579
N -2.131489 -0.087589 -1.565027
C -0.266984 1.531918 -1.036232
N 0.433837 1.240994 0.206355
C -0.100577 1.736240 1.434648
H -4.977914 1.601479 -1.385842
H -4.069618 -0.886057 -1.942030
H -2.808944 3.064714 -0.812684
H -0.168662 2.620000 -1.275485
H 0.315044 0.986248 -1.825148
C -1.369250 0.994702 1.950603
C 1.025835 1.543377 2.513760
C -0.441562 3.267346 1.391606
H -1.169038 -0.081308 2.016042
H -1.706747 1.362749 2.910418
H -2.176428 1.107690 1.211189
H 1.939475 2.031088 2.173006
H 0.726477 1.955013 3.471396
H 1.239730 0.476213 2.636975
H 0.412279 3.821483 1.006174
H -1.283432 3.421543 0.709895
H -0.710115 3.644310 2.371899
H 1.109360 -3.168885 1.723046
C -1.053210 -2.859085 1.672273
C 0.367253 -2.400358 1.852052
C -1.497068 -3.022778 0.202551
H -1.215987 -3.819169 2.199656
H -1.739067 -2.130914 2.152699
H -2.560163 -3.310125 0.164276
H -1.459341 -2.028930 -0.322074
C -0.647748 -4.047630 -0.554140
H 0.543750 -1.826705 2.744305
H 0.412619 -3.746671 -0.530069
H -0.718942 -5.038152 -0.106119
H -0.950282 -4.109755 -1.601891

-H 0
6-31g(d,p)
****
-C 0
6-31g(d,p)
****
-Mg 0
6-31g(d,p)
****
-N 0
6-31+g(d,p)
****


