%chk=speciationDFT66.chk
%nprocshared=32
%mem=64GB
#p opt=loose wb97xd/gen scf=xqc freq

speciation study

0 1
Mg -0.286146 1.843915 1.222938
C 1.687203 2.559309 0.823967
C 2.290043 4.217737 -0.795426
O 1.282945 3.568694 -0.036137
C 2.355841 3.080327 2.083451
C 2.686655 3.363591 -2.000080
H 2.860340 0.293096 -0.579665
H 2.273018 1.783375 0.330663
H 1.800215 5.153863 -1.106816
H 3.158310 4.458525 -0.165064
H 1.797085 3.076887 -2.574438
H 3.380474 3.880853 -2.658683
H 3.158089 2.422343 -1.674138
H 1.785266 3.915304 2.501657
H 2.408913 2.292963 2.842660
H 3.371215 3.435522 1.890577
H -0.300032 1.950450 3.827897
C -1.874100 0.498960 3.417602
C -1.145777 1.792739 3.174472
C -1.000674 -0.730954 3.107228
H -2.215901 0.441304 4.469201
H -2.802468 0.470331 2.809242
H -0.650481 -0.729502 2.044647
H -0.067040 -0.681456 3.696886
C -1.753416 -2.027356 3.416749
H -1.787257 2.662403 3.179708
H -1.966029 -2.122984 4.482597
H -2.711858 -2.077365 2.883184
H -1.166542 -2.903704 3.113407
C 1.409251 -3.045278 1.256709
C 2.401059 -4.042175 1.133172
C 3.255335 -3.618874 0.088594
C 2.732880 -2.387398 -0.362542
N 1.606585 -2.037354 0.346544
C 3.270579 -1.517425 -1.445360
N 3.687279 -0.159043 -1.005121
C 4.814664 -0.087614 -0.041680
H 2.488204 -4.930902 1.700227
H 0.587842 -3.018645 1.936836
H 4.106377 -4.127130 -0.280140
H 4.116666 -2.008096 -1.964865
H 2.479845 -1.349324 -2.218277
C 5.940568 -1.074993 -0.406416
C 5.362498 1.362248 -0.147491
C 4.370861 -0.339305 1.413765
H 6.218037 -0.978631 -1.458931
H 6.826025 -0.905521 0.205757
H 5.604512 -2.108279 -0.235721
H 4.591625 2.086062 0.145799
H 6.226845 1.504184 0.498370
H 5.646792 1.586320 -1.178388
H 3.594024 0.369508 1.723196
H 3.916176 -1.344160 1.501940
H 5.201340 -0.279109 2.111502
Mg -2.633515 -0.801377 0.221176
H -2.026267 -3.276119 0.892472
C -2.360334 -3.373489 -1.251852
C -2.709843 -2.897256 0.140586
C -0.864263 -3.180627 -1.540388
H -2.615534 -4.445257 -1.361920
H -2.968733 -2.848297 -2.012103
H -0.556249 -2.129858 -1.349619
H -0.257106 -3.760899 -0.814467
C -0.502621 -3.583370 -2.972053
H -3.731494 -3.126358 0.422282
H -0.749901 -4.628910 -3.164833
H -1.030771 -2.965913 -3.703111
H 0.573809 -3.460306 -3.138582
C -6.179832 0.230501 -0.846668
C -5.848527 -0.288695 0.409273
C -4.660271 0.383299 0.827740
C -4.344827 1.279645 -0.246292
N -5.264118 1.191510 -1.247548
C -3.114065 2.140143 -0.323014
N -1.911107 1.307743 -0.450206
C -1.313992 1.197679 -1.770162
H -6.373515 -1.028036 0.959184
H -6.999115 -0.026561 -1.477835
H -4.292535 0.423722 1.832726
H -3.020662 2.726676 0.623105
H -3.224255 2.880828 -1.142274
C -1.036306 2.584119 -2.419481
C 0.043272 0.475821 -1.582975
C -2.200613 0.377269 -2.748349
H -0.533368 3.236608 -1.692023
H -0.393639 2.489456 -3.292801
H -1.959543 3.072271 -2.730069
H 0.009901 -0.300262 -0.790680
H 0.368865 -0.017906 -2.497961
H 0.830796 1.187911 -1.295898
H -2.216176 -0.687443 -2.483208
H -3.238059 0.738509 -2.713036
H -1.851673 0.456193 -3.774608

-C 0
6-31g(d,p)
****
-Mg 0
6-31g(d,p)
****
-N 0
6-31+g(d,p)
****
-H 0
6-31g(d,p)
****
-O 0
6-31+g(d,p)
****


