%chk=speciationDFT1.chk
%nprocshared=32
%mem=64GB
#p opt=loose wb97xd/gen scf=xqc freq

speciation study

0 1
Mg 0.297223 0.295841 0.078208
C 0.166868 -1.572409 -2.052336
C -1.201190 -2.221743 -0.169513
O 0.035127 -1.662530 -0.628126
C -0.590009 -0.375678 -2.595703
C -1.030513 -3.732773 -0.089864
H 1.280010 -1.455945 -2.145691
H -0.145435 -2.524471 -2.500575
H -1.354914 -1.757943 0.833208
H -2.051588 -1.911885 -0.814189
H -0.132478 -3.996399 0.479525
H -1.898099 -4.177185 0.410356
H -0.945579 -4.182437 -1.081494
H -1.438121 -0.064140 -1.924076
H 0.064960 0.509852 -2.698553
H -1.039543 -0.567106 -3.567902
C 2.924491 0.381105 -3.000454
C 3.527951 -0.858221 -2.696457
C 3.678190 -0.883830 -1.289248
C 3.160178 0.339469 -0.809068
N 2.710091 1.114904 -1.859444
C 3.185403 0.876375 0.596606
N 2.039999 0.542598 1.438086
C 2.146183 -0.588691 2.317534
H 3.821516 -1.611027 -3.378209
H 2.658639 0.763468 -3.957730
H 4.107081 -1.664747 -0.717963
H 4.150420 0.589592 1.067293
H 3.183511 1.996680 0.541797
C 3.143518 -0.298573 3.491997
C 0.731025 -0.808135 2.934547
C 2.592675 -1.923203 1.651663
H 2.835658 0.613792 4.005452
H 3.174979 -1.118624 4.202156
H 4.147253 -0.134005 3.099957
H 0.072048 -1.345625 2.238348
H 0.779471 -1.387027 3.852760
H 0.269438 0.163443 3.159583
H 2.040220 -2.071647 0.712246
H 3.649632 -1.881195 1.385976
H 2.426899 -2.777712 2.299797
C -4.534640 -1.898465 0.511295
C -4.658884 -1.430771 -0.813889
C -3.903728 -0.233211 -0.878805
C -3.357961 -0.040412 0.406331
N -3.744503 -1.055262 1.259058
C -2.533311 1.100656 0.923935
N -1.545948 1.535199 -0.068482
C -1.107645 2.904101 0.049149
H -5.206581 -1.877661 -1.599145
H -4.966443 -2.769983 0.941769
H -3.776107 0.402631 -1.716671
H -2.047593 0.804725 1.885933
H -3.238930 1.923049 1.190109
C -0.436672 3.245054 1.419760
C -0.060433 3.147454 -1.073959
C -2.278013 3.920427 -0.168495
H 0.409316 2.557583 1.608759
H -0.047162 4.257521 1.432143
H -1.145730 3.125750 2.236201
H -0.448497 2.789427 -2.032517
H 0.190934 4.200354 -1.166512
H 0.892945 2.614568 -0.887745
H -2.814658 3.649462 -1.081635
H -2.990098 3.873025 0.654979
H -1.913426 4.938761 -0.255896

-C 0
6-31g(d,p)
****
-Mg 0
6-31g(d,p)
****
-N 0
6-31+g(d,p)
****
-H 0
6-31g(d,p)
****
-O 0
6-31+g(d,p)
****


