%chk=speciationDFT71.chk
%nprocshared=32
%mem=64GB
#p opt=loose wb97xd/gen scf=xqc freq

speciation study

0 1
Mg 1.346117 1.532510 -0.390738
C 1.325769 -0.015760 -1.885773
C 1.017948 -2.384986 -1.494004
O 1.192818 -1.066818 -0.962157
C 0.199437 0.127678 -2.872445
C 2.225754 -2.841497 -2.304581
H 2.814625 -1.088314 -0.033889
H 2.304223 -0.064910 -2.366619
H 0.901809 -3.003965 -0.575358
H 0.087566 -2.402993 -2.096389
H 3.114985 -2.900072 -1.666906
H 2.057510 -3.833792 -2.728666
H 2.436918 -2.146932 -3.122556
H -0.023120 1.176247 -3.087292
H 0.406054 -0.370844 -3.821991
H -0.738403 -0.331124 -2.482056
H 3.092478 3.346066 0.373300
C 1.484795 4.488342 -0.553790
C 2.472730 3.358886 -0.509634
C 2.193011 5.865117 -0.584632
H 0.830652 4.403265 -1.442978
H 0.812934 4.453615 0.328722
H 2.853844 5.952969 0.293372
H 2.851041 5.917693 -1.466792
C 1.178558 7.011712 -0.604060
H 3.074656 3.258187 -1.397588
H 0.538941 6.952331 -1.490616
H 0.523432 6.965262 0.273626
H 1.671622 7.985289 -0.606288
C -5.271709 0.946845 1.389807
C -6.267666 0.857692 0.395927
C -5.616386 0.387706 -0.769801
C -4.256217 0.215352 -0.419418
N -4.049156 0.555667 0.894606
C -3.154499 -0.176635 -1.362965
N -2.321102 -1.346398 -1.091175
C -2.995174 -2.575675 -0.763957
H -7.293866 1.091770 0.495938
H -5.376688 1.261695 2.400847
H -6.061310 0.202189 -1.710640
H -2.447473 0.690420 -1.448225
H -3.610523 -0.293572 -2.378566
C -4.251026 -2.835945 -1.651748
C -1.990924 -3.744908 -1.029177
C -3.440428 -2.687382 0.721694
H -3.998584 -2.724013 -2.705286
H -4.662555 -3.826442 -1.483017
H -5.024439 -2.094694 -1.409103
H -1.128693 -3.663440 -0.358502
H -2.462533 -4.709271 -0.855745
H -1.636244 -3.704814 -2.059113
H -2.582984 -2.610156 1.393734
H -4.110663 -1.846992 0.962112
H -3.965148 -3.615167 0.922971
Mg -0.642237 -0.748461 0.274118
H -0.682703 0.746210 2.029361
C -1.297283 2.352320 0.716103
C -0.251841 1.398235 1.249747
C -1.675308 3.416610 1.770097
H -0.997102 2.862083 -0.216614
H -2.224572 1.776532 0.459949
H -1.868190 2.914304 2.735824
H -0.835965 4.108647 1.937314
C -2.928446 4.178949 1.332076
H 0.565129 1.890292 1.793475
H -2.772876 4.699321 0.385112
H -3.758881 3.463743 1.177228
H -3.249490 4.903451 2.079101
C 0.081981 -3.506099 1.970740
C -0.211169 -2.165961 2.337536
C 1.036979 -1.477732 2.292586
C 1.988954 -2.429132 1.882016
N 1.411897 -3.668390 1.693434
C 3.436400 -2.182459 1.628724
N 3.542012 -1.016622 0.715837
C 4.878456 -0.735975 0.178006
H -1.134147 -1.805916 2.743952
H -0.599470 -4.327038 1.904570
H 1.244235 -0.470950 2.576033
H 3.954599 -1.930789 2.579361
H 3.924405 -3.095584 1.225448
C 5.448231 -1.856481 -0.732252
C 4.753686 0.560894 -0.653013
C 5.869429 -0.495977 1.341533
H 4.824546 -1.982893 -1.622691
H 6.460142 -1.622515 -1.059653
H 5.471877 -2.814023 -0.205537
H 4.341459 1.373984 -0.033348
H 5.715756 0.884064 -1.044747
H 4.063562 0.429740 -1.497246
H 5.426149 0.197779 2.067296
H 6.098059 -1.424488 1.868803
H 6.804497 -0.067686 0.982291

-C 0
6-31g(d,p)
****
-Mg 0
6-31g(d,p)
****
-N 0
6-31+g(d,p)
****
-H 0
6-31g(d,p)
****
-O 0
6-31+g(d,p)
****


