%chk=speciationDFT157.chk
%nprocshared=32
%mem=64GB
#p opt=loose wb97xd/gen scf=xqc freq

speciation study

0 1
Mg -0.001367 0.092212 0.001553
C 2.116122 3.147843 -0.929018
C 0.897288 2.780625 -1.501752
C 0.967981 1.374127 -1.753135
C 2.268047 0.984380 -1.281464
N 2.960920 2.049463 -0.796160
C 2.776306 -0.430616 -1.239159
N 1.899905 -1.270115 -0.423004
C 2.386792 -1.654145 0.868677
H 0.062870 3.405349 -1.704254
H 2.433039 4.108361 -0.597101
H 0.339021 0.824076 -2.424200
H 3.838602 -0.443120 -0.921162
H 2.753589 -0.854519 -2.270810
C 2.627685 -0.456922 1.849778
C 1.313958 -2.593628 1.489435
C 3.737858 -2.460053 0.801978
H 1.676235 -0.039571 2.193737
H 3.206418 -0.749776 2.717906
H 3.159575 0.344971 1.319587
H 1.287397 -3.540158 0.948255
H 1.499332 -2.780098 2.541837
H 0.296809 -2.164609 1.377131
H 3.654442 -3.224255 0.029205
H 4.559502 -1.796915 0.535480
H 3.961614 -2.934465 1.751462
C -2.130808 3.142635 0.925756
C -0.911970 2.780867 1.502250
C -0.977450 1.374348 1.754170
C -2.274436 0.978902 1.279228
N -2.970508 2.040744 0.791181
C -2.776108 -0.438437 1.237190
N -1.893618 -1.274380 0.423698
C -2.377426 -1.664512 -0.867659
H -0.080929 3.409248 1.706991
H -2.450796 4.101693 0.592526
H -0.346159 0.826488 2.424655
H -3.837479 -0.456534 0.917142
H -2.753186 -0.861280 2.269413
C -2.622537 -0.471078 -1.851996
C -1.299813 -2.601085 -1.484446
C -3.724608 -2.476316 -0.799586
H -1.672685 -0.053062 -2.199321
H -3.202677 -0.767503 -2.718025
H -3.155034 0.331551 -1.323260
H -1.268180 -3.545051 -0.938912
H -1.484619 -2.793165 -2.535911
H -0.284650 -2.166823 -1.374434
H -3.638446 -3.238113 -0.024669
H -4.549693 -1.816380 -0.535510
H -3.945689 -2.954468 -1.747888

-H 0
6-31g(d,p)
****
-C 0
6-31g(d,p)
****
-Mg 0
6-31g(d,p)
****
-N 0
6-31+g(d,p)
****


