%chk=speciationDFT94.chk
%nprocshared=32
%mem=64GB
#p opt=loose wb97xd/gen scf=xqc freq

speciation study

0 1
Mg -2.449950 0.676214 0.124473
C -0.090713 0.762385 1.554155
C -1.564832 -1.166149 2.325329
O -1.034666 -0.430032 1.217293
C -0.536522 1.729133 0.590520
C -2.526640 -2.206308 1.769393
H -0.269576 0.992540 2.610933
H 0.908458 0.299688 1.413660
H -0.717450 -1.613126 2.870770
H -2.097023 -0.432733 2.970130
H -2.020519 -3.086187 1.358920
H -3.229610 -2.537237 2.544886
H -3.186284 -1.784394 0.980605
H -0.970339 2.656449 0.928756
H 3.630589 1.595068 2.424143
H 0.008190 1.833315 -0.333882
H -0.683849 -2.055173 -2.648359
C -0.034110 0.024362 -2.656683
C -0.810370 -1.136907 -2.088969
C 1.488614 -0.208672 -2.615459
H -0.339079 0.212742 -3.704140
H -0.276619 0.956347 -2.106114
H 1.815415 -0.438807 -1.578815
H 1.748654 -1.096401 -3.215982
C 2.259555 1.013203 -3.115316
H -1.878815 -0.945357 -1.988191
H 2.181992 1.137600 -4.194200
H 1.907530 1.934977 -2.639413
H 3.331698 0.940650 -2.854959
C -4.446828 0.388118 3.507277
C -3.887145 1.589869 3.053702
C -4.160975 1.661286 1.657349
C -4.875083 0.462689 1.349993
N -5.046753 -0.303955 2.470008
C -5.359543 0.004056 -0.000269
N -4.337008 0.161544 -1.037410
C -4.617243 1.113132 -2.075909
H -3.378101 2.321018 3.628317
H -4.456165 -0.007789 4.496659
H -4.058426 2.534720 1.051342
H -6.315940 0.518936 -0.231224
H -5.601201 -1.086232 0.050261
C -4.778410 2.594312 -1.592797
C -3.421781 1.078116 -3.068349
C -5.910341 0.744791 -2.874352
H -3.832042 2.970178 -1.196467
H -5.092049 3.244665 -2.404964
H -5.523412 2.645267 -0.795135
H -2.496697 1.425046 -2.593422
H -3.246741 0.046273 -3.396903
H -3.610115 1.697656 -3.942013
H -5.861121 -0.308132 -3.163224
H -6.797465 0.878119 -2.254943
H -6.015645 1.352329 -3.768932
Mg -0.115313 -1.668598 -0.160501
H 1.771050 -2.893814 1.212146
C 1.130161 -4.392849 -0.234281
C 0.869480 -3.308158 0.780938
C 2.020401 -3.894911 -1.388419
H 1.618304 -5.260571 0.250402
H 0.176663 -4.778844 -0.640885
H 1.498296 -3.090064 -1.948228
H 2.937673 -3.433793 -0.975692
C 2.385885 -5.033786 -2.345690
H 0.200110 -3.614687 1.571006
H 2.937341 -5.823354 -1.828985
H 1.489007 -5.484776 -2.779799
H 3.009874 -4.671624 -3.167938
C 6.283531 2.405513 -1.334361
C 6.377701 3.440936 -0.377497
C 5.227624 3.330464 0.436707
C 4.499218 2.230557 -0.067045
N 5.146160 1.662613 -1.141478
C 3.194983 1.703392 0.419295
N 3.250183 0.970465 1.713087
C 4.024431 -0.299589 1.721159
H 7.150022 4.158527 -0.289785
H 6.964510 2.174416 -2.119634
H 4.964986 3.949695 1.253598
H 2.478487 2.544563 0.575425
H 2.729753 1.042762 -0.348428
C 5.529930 -0.055869 1.970479
C 3.444100 -1.127520 2.900695
C 3.853562 -1.095236 0.420262
H 5.713604 0.437294 2.923611
H 6.100352 -0.981972 1.938737
H 5.927362 0.608261 1.178235
H 2.374640 -1.310423 2.738513
H 3.946841 -2.090669 2.983924
H 3.549723 -0.597184 3.847616
H 2.793977 -1.243590 0.179058
H 4.320889 -0.555698 -0.425764
H 4.328879 -2.074431 0.488178

-C 0
6-31g(d,p)
****
-Mg 0
6-31g(d,p)
****
-N 0
6-31+g(d,p)
****
-H 0
6-31g(d,p)
****
-O 0
6-31+g(d,p)
****


