%chk=speciationDFT45.chk
%nprocshared=32
%mem=64GB
#p opt=loose wb97xd/gen scf=xqc freq

speciation study

0 1
Mg -0.965610 -1.182095 0.484975
H -1.776490 -3.626796 -0.004496
C -3.509466 -2.680766 0.926629
C -2.036002 -2.983346 0.822927
C -4.019411 -1.881870 -0.287719
H -4.089941 -3.617875 1.019458
H -3.717299 -2.101553 1.848440
H -3.601965 -0.841465 -0.248144
H -3.652301 -2.333597 -1.223002
C -5.548466 -1.789971 -0.300523
H -1.602552 -3.357809 1.740224
H -6.014986 -2.775166 -0.301517
H -5.898111 -1.239383 0.581881
H -5.896358 -1.236869 -1.177793
C -3.869150 1.267914 1.725654
C -4.671450 1.650701 0.631807
C -3.786239 1.850299 -0.455246
C -2.491499 1.575576 0.035228
N -2.541286 1.235249 1.370853
C -1.180320 1.708657 -0.683911
N -0.590385 0.450089 -1.137344
C -0.862943 0.023921 -2.485266
H -5.722745 1.765588 0.619507
H -4.178896 1.027810 2.715339
H -4.051302 2.149875 -1.434505
H -0.440233 2.158519 0.031569
H -1.292967 2.441382 -1.512717
C 0.130676 0.710390 -3.483613
C -0.634014 -1.514945 -2.554235
C -2.303682 0.308566 -2.985918
H 1.158575 0.379656 -3.297240
H -0.116180 0.483959 -4.516021
H 0.104675 1.793784 -3.344666
H -1.483904 -2.052083 -2.113697
H -0.517493 -1.856958 -3.579356
H 0.273842 -1.797365 -1.994206
H -3.026919 0.006708 -2.213852
H -2.460628 1.375722 -3.150624
H -2.530101 -0.221947 -3.905842
Mg 1.839392 0.484774 -0.606583
H 3.775803 2.189891 -0.223689
C 2.045756 3.505809 -0.469019
C 2.895591 2.318799 -0.837379
C 1.784640 3.563285 1.048180
H 2.532024 4.447273 -0.788021
H 1.081356 3.469958 -1.014793
H 1.445827 2.566142 1.406110
H 2.727624 3.769019 1.579548
C 0.729972 4.616802 1.397269
H 3.170656 2.288187 -1.883274
H 0.995511 5.599402 1.005514
H -0.246878 4.338048 0.974419
H 0.597093 4.703576 2.478264
C 5.206909 -1.383285 -1.107246
C 4.299768 -1.083539 -2.131341
C 3.006535 -1.433548 -1.642181
C 3.227715 -1.921644 -0.317079
N 4.555563 -1.899733 0.000607
C 2.162674 -2.358944 0.651839
N 1.358465 -1.220827 1.085833
C 1.587732 -0.689949 2.403992
H 4.519474 -0.682427 -3.087176
H 6.264188 -1.254569 -1.098888
H 2.124493 -1.540817 -2.237470
H 2.632465 -2.914601 1.490727
H 1.478554 -3.079623 0.142021
C 2.965932 0.020360 2.524396
C 0.454609 0.336762 2.672427
C 1.512282 -1.777588 3.527114
H 2.999289 0.922531 1.902041
H 3.202302 0.295889 3.546324
H 3.757379 -0.643354 2.145893
H -0.488304 -0.157223 2.951502
H 0.710192 1.023712 3.475297
H 0.231420 0.946777 1.772702
H 0.631408 -2.405793 3.367827
H 2.393298 -2.418909 3.503247
H 1.448314 -1.323503 4.512073

-H 0
6-31g(d,p)
****
-C 0
6-31g(d,p)
****
-Mg 0
6-31g(d,p)
****
-N 0
6-31+g(d,p)
****


