%chk=speciationDFT131.chk
%nprocshared=32
%mem=64GB
#p opt=loose wb97xd/gen scf=xqc freq

speciation study

0 1
Mg 1.737369 0.526487 -0.758184
C 2.527072 1.824647 1.939246
C 2.806050 3.005951 -0.213069
O 2.890430 1.728513 0.574586
C 1.017223 1.858545 2.110207
C 2.165334 2.616804 -1.452139
H 2.977931 0.922757 2.395200
H 3.013011 2.716111 2.369511
H 2.249602 3.732630 0.397501
H 3.870011 3.284692 -0.276927
H 1.177135 2.985450 -1.654683
H 2.762289 2.487098 -2.329550
H 4.574717 1.135011 0.056461
H 0.562554 0.858044 2.036762
H 0.710550 2.297544 3.058450
H 0.515290 2.447563 1.312107
H -0.585370 0.330293 0.077580
C 0.183983 -1.626934 0.793343
C -0.055508 -0.582531 -0.261963
C 1.656113 -1.753976 1.238682
H -0.441389 -1.419684 1.688926
H -0.142428 -2.620300 0.419161
H 2.295781 -1.986180 0.357812
H 2.016442 -0.791323 1.649965
C 1.829124 -2.854470 2.290072
H -0.220556 -0.965222 -1.271060
H 1.233600 -2.646957 3.183223
H 1.514190 -3.824940 1.894783
H 2.875988 -2.948300 2.591311
C -2.158087 3.669778 -0.068344
C -3.430928 4.061557 0.390951
C -3.874366 3.026924 1.250636
C -2.849673 2.055171 1.262900
N -1.802062 2.449589 0.461430
C -2.765690 0.799964 2.086039
N -3.426902 -0.399234 1.594290
C -4.853104 -0.495507 1.681364
H -3.951551 4.951240 0.154058
H -1.500247 4.198247 -0.717743
H -4.786428 3.000750 1.786816
H -1.684353 0.507570 2.175821
H -3.092921 1.048573 3.122176
C -5.626448 0.159625 0.488804
C -5.206027 -2.018942 1.652749
C -5.455778 0.097945 2.994174
H -5.316851 -0.292987 -0.458419
H -6.700229 0.043794 0.592448
H -5.389484 1.229531 0.453026
H -4.728590 -2.522961 2.494593
H -6.278181 -2.181300 1.697281
H -4.816105 -2.471777 0.732530
H -4.930902 -0.311299 3.858538
H -5.329906 1.184374 3.003622
H -6.514345 -0.128950 3.082948
Mg -2.564259 -0.901541 -0.438666
C -3.719635 1.570048 -1.984309
C -1.953615 0.477938 -3.197961
O -3.011148 0.366703 -2.254761
C -4.970572 1.589337 -2.855750
C -0.890444 1.476223 -2.776125
H -3.949363 1.498939 -0.890248
H -3.092830 2.468074 -2.112491
H -1.569763 -0.565262 -3.218074
H -2.394809 0.720311 -4.177085
H -0.900423 1.617917 -1.666044
H 0.116891 1.148957 -3.057344
H -1.048353 2.469828 -3.198528
H -5.532680 0.654498 -2.739037
H -5.624818 2.416630 -2.565980
H -4.720309 1.696777 -3.912661
H -4.166507 -2.622085 -1.562630
C -2.335357 -3.792166 -1.290776
C -3.096471 -2.552953 -1.688452
C -2.927254 -4.502959 -0.053035
H -2.334084 -4.513178 -2.133347
H -1.267506 -3.553894 -1.111276
H -4.027661 -4.399652 -0.065920
H -2.722620 -5.585048 -0.117939
C -2.374838 -3.957296 1.263486
H -2.867750 -2.208951 -2.686384
H -1.287746 -4.063416 1.320669
H -2.605880 -2.876019 1.380111
H -2.813968 -4.462334 2.124912
C 3.245759 -2.620539 -1.799989
C 2.537062 -1.627327 -2.498854
C 3.334833 -0.449351 -2.432971
C 4.484776 -0.811000 -1.680216
N 4.435948 -2.126421 -1.308382
C 5.653391 0.064256 -1.367806
N 5.563069 0.834682 -0.105050
C 6.092334 0.185963 1.115151
H 1.608503 -1.739653 -3.004494
H 2.966060 -3.635647 -1.628360
H 3.204577 0.451234 -2.992223
H 6.586582 -0.536187 -1.390470
H 5.759253 0.835709 -2.169284
C 7.536410 -0.320327 0.896674
C 6.126882 1.300244 2.197922
C 5.217298 -0.975450 1.617865
H 8.136746 0.440893 0.391583
H 8.011060 -0.566770 1.846233
H 7.540643 -1.223979 0.275687
H 5.126080 1.718353 2.351446
H 6.492202 0.915201 3.148055
H 6.773200 2.120344 1.875173
H 4.177685 -0.657187 1.756111
H 5.182072 -1.782730 0.862862
H 5.585229 -1.397314 2.549306

-C 0
6-31g(d,p)
****
-Mg 0
6-31g(d,p)
****
-N 0
6-31+g(d,p)
****
-H 0
6-31g(d,p)
****
-O 0
6-31+g(d,p)
****


