%chk=speciationDFT9.chk
%nprocshared=32
%mem=64GB
#p opt=loose wb97xd/gen scf=xqc freq

speciation study

0 1
Mg 0.420341 0.541264 0.320156
H 1.353259 2.674710 1.597139
C 3.076247 1.320676 1.515816
C 1.632806 1.653338 1.763982
C 3.551969 1.849901 0.146151
H 3.723173 1.742715 2.308944
H 3.218520 0.220810 1.556192
H 2.922756 1.401353 -0.653388
H 3.380688 2.936208 0.089421
C 5.031807 1.526277 -0.103788
H 1.238963 1.266043 2.687146
H 5.667663 1.974953 0.661228
H 5.192624 0.443005 -0.078772
H 5.359559 1.893846 -1.077373
C -3.681189 -0.332418 0.692724
C -3.014675 0.631404 1.468686
C -1.756813 0.065825 1.810524
C -1.734628 -1.218948 1.206469
N -2.906659 -1.466044 0.536719
C -0.622339 -2.231519 1.305193
N 0.582635 -1.878849 0.562383
C 0.732558 -2.475656 -0.724289
H -3.371708 1.587011 1.749215
H -4.647499 -0.271572 0.252527
H -1.038619 0.480107 2.481794
H -1.021671 -3.234780 1.040821
H -0.308569 -2.292417 2.376450
C -0.426104 -2.208175 -1.731346
C 2.057452 -1.914806 -1.338384
C 0.905356 -4.051094 -0.649169
H -0.535663 -1.126576 -1.885323
H -0.273556 -2.696929 -2.684259
H -1.376338 -2.537004 -1.291745
H 2.863973 -2.024493 -0.610453
H 2.319016 -2.426825 -2.257965
H 1.947552 -0.843885 -1.547541
H 1.681056 -4.281895 0.077536
H -0.026323 -4.500191 -0.310086
H 1.170453 -4.466215 -1.613445
H 0.813319 2.363658 -1.543674
C -1.252012 1.719555 -1.878050
C 0.211734 1.478930 -1.636896
C -1.805271 2.811963 -0.940163
H -1.438007 2.012880 -2.928364
H -1.825525 0.780721 -1.714318
H -1.609917 2.508312 0.113624
H -1.268970 3.757866 -1.101953
C -3.314780 2.997900 -1.139090
H 0.660099 0.757127 -2.295411
H -3.560913 3.211163 -2.178982
H -3.832401 2.068485 -0.849139
H -3.705629 3.801981 -0.515660

-H 0
6-31g(d,p)
****
-C 0
6-31g(d,p)
****
-Mg 0
6-31g(d,p)
****
-N 0
6-31+g(d,p)
****


