%chk=speciationDFT4.chk
%nprocshared=32
%mem=64GB
#p opt=loose wb97xd/gen scf=xqc freq

speciation study

0 1
Mg -0.318591 0.303667 -0.271127
C -0.412487 -1.636558 -2.577200
C 0.668793 -2.316028 -0.480480
O 0.368788 -1.297097 -1.437214
C -1.561928 -2.581132 -2.299283
C 1.520464 -3.409925 -1.100367
H -0.767048 -0.635512 -2.912754
H 0.298959 -2.048855 -3.313249
H 1.285219 -1.715723 0.271186
H -0.265709 -2.686010 -0.016758
H 2.339008 -2.970697 -1.685851
H 1.992945 -4.005863 -0.308584
H 0.948646 -4.075445 -1.746172
H -2.038982 -2.329672 -1.316268
H -2.350829 -2.503511 -3.047171
H -1.249433 -3.623201 -2.229140
C -3.120148 -2.363420 1.699572
C -4.457256 -1.977496 1.911441
C -4.721484 -0.942467 0.979604
C -3.528077 -0.756688 0.250308
N -2.554404 -1.629530 0.681741
C -3.305881 0.208184 -0.879286
N -2.293016 1.243635 -0.714809
C -2.507749 2.225544 0.325666
H -5.133679 -2.371749 2.622465
H -2.559286 -3.109370 2.213040
H -5.629318 -0.412802 0.864555
H -4.288269 0.666375 -1.143790
H -2.991490 -0.362768 -1.789169
C -2.219396 1.704420 1.767478
C -1.510431 3.388724 0.041777
C -3.954322 2.809999 0.321159
H -1.153773 1.468006 1.904269
H -2.497497 2.432269 2.522946
H -2.791634 0.781323 1.946226
H -1.650520 3.763258 -0.972175
H -1.637223 4.202656 0.748909
H -0.466626 3.026019 0.121951
H -4.226518 3.116961 -0.688713
H -4.661717 2.040749 0.646188
H -4.040803 3.663532 0.987710
C 4.192838 -1.940982 1.583292
C 5.243530 -1.005736 1.670964
C 4.636019 0.272441 1.615946
C 3.246072 0.043250 1.489101
N 2.977179 -1.303317 1.480919
C 2.167213 1.087220 1.447347
N 1.527102 1.436667 0.187094
C 2.329581 1.689250 -0.973515
H 6.276704 -1.210892 1.762269
H 4.256470 -3.002711 1.595711
H 5.127123 1.207868 1.655998
H 2.592423 2.021656 1.895196
H 1.336313 0.764528 2.127538
C 3.190818 0.502218 -1.489189
C 1.339504 2.065639 -2.129014
C 3.291651 2.901243 -0.744139
H 2.606786 -0.423164 -1.473132
H 3.579791 0.675267 -2.485040
H 4.032827 0.322348 -0.806391
H 0.571507 2.754780 -1.752911
H 1.860224 2.542572 -2.953086
H 0.837819 1.169469 -2.517180
H 2.720302 3.764932 -0.404174
H 4.009223 2.642041 0.040601
H 3.838890 3.155723 -1.645534

-C 0
6-31g(d,p)
****
-Mg 0
6-31g(d,p)
****
-N 0
6-31+g(d,p)
****
-H 0
6-31g(d,p)
****
-O 0
6-31+g(d,p)
****


