%chk=speciationDFT7.chk
%nprocshared=32
%mem=64GB
#p opt=loose wb97xd/gen scf=xqc freq

speciation study

0 1
Mg 0.063361 -0.085438 -0.224477
C 2.088209 0.732225 -2.138775
C 1.353306 -1.505768 -2.452989
O 0.940340 -0.150085 -2.172896
C 1.529365 2.104637 -2.474531
C 0.111505 -2.359757 -2.308195
H 2.549265 0.656078 -1.109445
H 2.847830 0.390380 -2.858224
H 1.754384 -1.506683 -3.478221
H 2.172532 -1.786248 -1.744681
H -0.752966 -1.917590 -2.820161
H 0.271927 -3.361356 -2.709245
H -0.191596 -2.498431 -1.240969
H 0.671285 2.348511 -1.830536
H 2.291072 2.872666 -2.315316
H 1.188033 2.159462 -3.510727
C -5.887322 0.265992 -0.319338
C -6.400160 -1.031498 -0.123532
C -5.295488 -1.909327 -0.234797
C -4.163685 -1.096894 -0.480217
N -4.530831 0.226509 -0.547186
C -2.773278 -1.591269 -0.777611
N -1.673368 -1.453180 0.167327
C -1.902956 -1.593402 1.576051
H -7.405020 -1.300472 0.067155
H -6.413941 1.190461 -0.310231
H -5.316605 -2.963994 -0.150214
H -2.436952 -1.097160 -1.723829
H -2.870016 -2.684760 -1.013584
C -2.854371 -2.767146 1.942255
C -0.517572 -1.898458 2.229439
C -2.464386 -0.294581 2.236053
H -2.554083 -3.672305 1.414330
H -2.866898 -2.959035 3.011023
H -3.877334 -2.524774 1.626572
H 0.161075 -1.029750 2.180641
H -0.626261 -2.163185 3.277000
H -0.031562 -2.723867 1.700474
H -1.807643 0.556049 2.036831
H -3.442732 -0.065662 1.788347
H -2.590837 -0.406128 3.307219
C -2.239312 1.842189 -0.716139
C -0.909659 3.776119 -0.254466
O -1.049676 2.375699 -0.155357
C -2.073231 1.622009 -2.211756
C -1.636510 4.439413 0.916833
H -2.357049 0.877748 -0.139755
H -3.119877 2.454592 -0.473211
H 0.184473 3.931258 -0.193427
H -1.275607 4.142798 -1.226317
H -1.272460 4.028182 1.868439
H -1.493203 5.518017 0.927526
H -2.712813 4.230320 0.876573
H -1.169074 1.044225 -2.451416
H -2.938990 1.035434 -2.568419
H -2.041808 2.556158 -2.770113
C 5.646868 -1.173643 -1.456574
C 6.379408 -1.111029 -0.254980
C 5.422292 -1.117433 0.789524
C 4.156560 -1.173703 0.164420
N 4.293755 -1.218413 -1.203286
C 2.814201 -1.255639 0.844085
N 2.029881 -0.035352 0.874020
C 2.346253 0.980555 1.817242
H 7.430616 -1.069566 -0.148170
H 6.018336 -1.192290 -2.453072
H 5.619854 -1.083203 1.828101
H 2.974999 -1.669087 1.868837
H 2.190921 -2.015295 0.303898
C 3.650247 1.760365 1.461231
C 1.170894 2.005365 1.790001
C 2.500889 0.470465 3.291712
H 3.571199 2.186811 0.460798
H 3.873559 2.541435 2.177647
H 4.492455 1.055629 1.417737
H 0.205617 1.503836 1.956920
H 1.287400 2.766594 2.556211
H 1.151570 2.500053 0.813492
H 1.623738 -0.113502 3.574868
H 3.378812 -0.174028 3.367113
H 2.620244 1.296365 3.985483

-C 0
6-31g(d,p)
****
-Mg 0
6-31g(d,p)
****
-N 0
6-31+g(d,p)
****
-H 0
6-31g(d,p)
****
-O 0
6-31+g(d,p)
****


