%chk=speciation597.chk
%nprocshared=16
%mem=32GB
#p opt=loose PM7 scf=xqc 

 speciation study

0 1
Na         1.29576        0.52539       -0.09718
Mg         4.18597       -1.30750       -0.71007
C          6.52899       -2.20505        1.30843
C          6.06212       -3.56643       -0.48487
O          5.53290       -2.52774        0.32896
C          7.75990       -1.44933        0.75509
C          5.06347       -4.03210       -1.49718
H          6.05797       -1.66780        2.14556
H          6.88470       -3.11292        1.84729
H          6.94376       -3.21265       -1.05639
H          6.31853       -4.45402        0.13671
H          4.84763       -3.18911       -2.17962
H          5.50205       -4.85547       -2.09642
H          4.15743       -4.40287       -0.97481
H          7.47752       -0.56695        0.14918
H          8.39817       -1.11321        1.59959
H          8.39057       -2.10878        0.12464
H          2.69611       -3.16915       -2.20123
C          1.26703       -1.62437       -2.32471
C          2.39955       -2.32325       -1.55548
C          1.71851       -0.99358       -3.64636
H          0.48614       -2.38735       -2.54583
H          0.80096       -0.84944       -1.69227
H          2.47113       -0.20253       -3.44533
H          2.17331       -1.76789       -4.30180
C          0.52443       -0.37390       -4.38017
H          1.95207       -2.74346       -0.63058
H         -0.23293       -1.15252       -4.61963
H          0.04479        0.40905       -3.75410
H          0.85921        0.09120       -5.33124
C          5.95371       -0.58295       -3.06317
C          6.22869        0.64966       -3.62248
C          5.52473        1.58806       -2.88886
C          4.85339        0.88725       -1.90820
N          5.12347       -0.42392       -2.02041
C          3.94032        1.46301       -0.83856
N          3.42198        0.39731        0.06186
C          3.64499        0.56320        1.50777
H          6.86893        0.84142       -4.47256
H          6.33659       -1.53808       -3.39746
H          5.50814        2.65698       -3.05251
H          3.07965        1.95875       -1.33682
H          4.49648        2.24840       -0.29237
C          2.92174        1.79459        2.08892
C          3.06903       -0.70271        2.16882
C          5.13813        0.72027        1.79092
H          1.83008        1.75125        1.90429
H          3.09215        1.84348        3.18765
H          3.31615        2.73495        1.64987
H          3.52420       -1.62126        1.74561
H          3.22660       -0.69598        3.26716
H          1.97274       -0.76265        1.98005
H          5.65704        0.07334        1.09376
H          5.52396        1.72812        1.54670
H          5.38295        0.51092        2.85367

