%chk=speciation3.chk
%nprocshared=16
%mem=32GB
#p opt=loose PM7 scf=xqc 

 speciation study

0 1
Na         1.48387        1.69787        0.06650
C          2.30766        4.14045        1.55729
C          1.67044        4.54270       -0.69298
O          2.15756        3.61306        0.24958
C          1.02204        4.68537        2.19348
C          1.48366        3.83268       -2.02595
H          2.66393        3.30907        2.19982
H          3.11381        4.90524        1.57375
H          0.68149        4.95868       -0.40929
H          2.41853        5.35249       -0.83969
H          0.70972        3.04110       -1.92809
H          1.15368        4.55931       -2.79824
H          2.43865        3.36783       -2.34908
H          0.21943        3.91918        2.16940
H          1.22731        4.95665        3.25111
H          0.67792        5.60948        1.68554
C         -1.59377        0.96753        0.08107
C         -2.32229       -0.20508        0.03367
C         -1.40666       -1.23774       -0.02861
C         -0.16469       -0.64662       -0.01777
N         -0.28175        0.68332        0.05151
C          1.16545       -1.33222       -0.06583
N          2.25930       -0.33034       -0.06562
C          3.22635       -0.41143        1.04785
H         -3.39984       -0.29493        0.04077
H         -1.99683        1.97065        0.13142
H         -1.62583       -2.30087       -0.07750
H          1.23314       -1.93118       -1.00163
H          1.21360       -2.03165        0.78881
C          3.92831       -1.78758        1.12176
C          4.30308        0.65402        0.78791
C          2.52372       -0.09248        2.38580
H          4.44144       -2.01632        0.16230
H          4.69052       -1.78410        1.93129
H          3.22806       -2.61496        1.34709
H          3.85082        1.66234        0.71014
H          5.05596        0.67123        1.60404
H          4.83150        0.44575       -0.16932
H          2.01497        0.89219        2.32784
H          1.76116       -0.85717        2.63817
H          3.26005       -0.06056        3.21581
Na         3.30093       -0.49083       -1.92765

