%chk=speciation2.chk
%nprocshared=16
%mem=32GB
#p opt=loose PM7 scf=xqc 

 speciation study

0 1
Na         0.99629        0.03205        0.09465
C         -1.89350       -1.02238       -0.65086
C         -1.90718        1.26130       -0.28114
O         -1.32371        0.03205        0.09465
C         -1.24524       -2.33793       -0.24763
C         -1.28046        2.38924        0.52339
H         -2.97829       -1.10936       -0.41016
H         -1.75385       -0.87267       -1.74520
H         -1.76378        1.46859       -1.36552
H         -2.99347        1.25316       -0.03200
H         -1.78211        3.34881        0.27514
H         -0.20263        2.47459        0.27977
H         -1.39668        2.19517        1.61111
H         -1.36185       -2.50213        0.84505
H         -0.16511       -2.32539       -0.50349
H         -1.73476       -3.17576       -0.78861
C          2.96178       -2.95044       -3.01971
C          2.36652       -2.00204       -3.82543
C          2.61939       -0.76756       -3.26389
C          3.34112       -0.94878       -2.15807
N          3.59466       -2.31864       -1.93560
C          3.86823        0.15659       -1.28698
N          3.36629        0.03205        0.09465
C          3.79667        1.11590        1.01484
H          1.81737       -2.20287       -4.73461
H          2.95605       -4.01698       -3.19546
H          2.30349        0.18981       -3.66304
H          3.55228        1.11926       -1.73267
H          4.97252        0.08375       -1.30648
C          3.29021        2.50056        0.54659
C          3.17702        0.82207        2.39076
C          5.33336        1.15543        1.17015
H          2.18791        2.48693        0.41941
H          3.54764        3.28198        1.29277
H          3.75507        2.81489       -0.40927
H          3.52361       -0.16139        2.77331
H          3.46333        1.60388        3.12837
H          2.06818        0.79933        2.32130
H          5.71689        0.17142        1.51363
H          5.83640        1.42284        0.21844
H          5.62809        1.92684        1.91450
Na         4.06154       -1.83036        0.88047

