%chk=speciation359.chk
%nprocshared=16
%mem=32GB
#p opt=loose PM7 scf=xqc 

 speciation study

0 1
Na         1.12765       -0.31546       -0.04244
Mg        -4.31176       -0.79168       -3.23190
C         -1.09990       -1.96540        1.26847
C         -0.55465       -0.24106        2.75646
O         -0.16075       -0.94626        1.58743
C         -2.48328       -1.43293        0.86094
C          0.48701        0.78162        3.16078
H         -0.68480       -2.54137        0.42006
H         -1.19997       -2.69963        2.09990
H         -1.50005        0.31952        2.59707
H         -0.66499       -0.94707        3.61375
H          0.60371        1.53604        2.35745
H          0.14150        1.29578        4.08580
H          1.45723        0.28563        3.36517
H         -2.37355       -0.68317        0.06064
H         -3.11739       -2.26300        0.49016
H         -3.01717       -0.96336        1.70847
H         -6.99391       -0.75862       -3.54024
C         -6.35517        0.98168       -4.66896
C         -6.23494        0.05063       -3.46485
C         -6.14077        0.21553       -5.97652
H         -7.36910        1.44279       -4.67754
H         -5.59924        1.78947       -4.56883
H         -5.14523       -0.27705       -5.96058
H         -6.92708       -0.56483       -6.07881
C         -6.21110        1.14631       -7.18496
H         -6.44212        0.63019       -2.54089
H         -7.19900        1.65245       -7.23347
H         -5.41040        1.91410       -7.12604
H         -6.06892        0.55654       -8.11513
C         -2.36507       -3.00516       -2.87613
C         -1.06175       -3.29737       -2.53090
C         -0.44342       -2.09547       -2.27999
C         -1.39633       -1.11330       -2.47823
N         -2.56796       -1.67257       -2.85131
C         -1.22522        0.36077       -2.30085
N          0.10650        0.75897       -1.77358
C          0.24320        2.22810       -1.58831
H         -0.61710       -4.28169       -2.46111
H         -3.12905       -3.72899       -3.12627
H          0.58198       -1.94422       -1.97965
H         -2.02478        0.67797       -1.61224
H         -1.41083        0.81404       -3.29627
C         -0.80972        2.77353       -0.59539
C          1.62387        2.49819       -0.99132
C          0.15528        2.98674       -2.93475
H         -0.77223        2.19577        0.35338
H         -0.61987        3.84354       -0.36853
H         -1.83827        2.72025       -1.00437
H          2.42688        2.12125       -1.66170
H          1.78180        3.58841       -0.83520
H          1.69202        2.00026       -0.00512
H          0.91973        2.60354       -3.64538
H         -0.84303        2.89807       -3.40631
H          0.33643        4.07233       -2.78109
Mg         6.79941        0.16165        2.69783
C          7.82262        0.70219       -0.02548
C          7.40180        0.97285       -1.31166
C          6.02207        1.01243       -1.27577
C          5.66080        0.75106        0.03377
N          6.76010        0.57626        0.79337
C          4.25562        0.63159        0.55899
N          3.47036       -0.43416       -0.12020
C          3.96284       -1.83754        0.05255
H          8.03190        1.11220       -2.18080
H          8.85169        0.58974        0.29202
H          5.36022        1.18839       -2.11277
H          3.78498        1.61120        0.38400
H          4.25750        0.47615        1.65701
C          4.08583       -2.22181        1.54065
C          2.93894       -2.75504       -0.62018
C          5.32160       -2.11623       -0.65216
H          3.12576       -2.05053        2.06981
H          4.36942       -3.29176        1.64472
H          4.88384       -1.63338        2.04233
H          2.86881       -2.51013       -1.70254
H          3.24155       -3.82102       -0.52610
H          1.94342       -2.63228       -0.14928
H          5.29690       -1.79440       -1.71535
H          6.18255       -1.65139       -0.14711
H          5.56186       -3.20087       -0.62503

