%chk=speciation170.chk
%nprocshared=16
%mem=32GB
#p opt=loose PM7 scf=xqc 

 speciation study

0 1
Na         1.06437       -0.05943       -0.04821
Mg        -1.96896        1.65390        0.71637
H         -3.52899        3.21904        2.15026
C         -2.98897        4.38747        0.38214
C         -2.64895        3.41028        1.50016
C         -4.08866        3.83281       -0.52558
H         -3.32083        5.34896        0.83178
H         -2.07067        4.56951       -0.21749
H         -3.75617        2.87013       -0.97250
H         -5.00933        3.65298        0.07124
C         -4.41203        4.81571       -1.64875
H         -1.83214        3.83848        2.11864
H         -4.75609        5.78479       -1.22737
H         -3.51347        4.99197       -2.27822
H         -5.21875        4.40106       -2.28883
C         -0.17475        2.58766       -3.09416
C         -0.89046        2.07283       -4.15769
C         -1.58625        0.99015       -3.67358
C         -1.26558        0.88764       -2.33440
N         -0.40526        1.86293       -1.98141
C         -1.81249       -0.17800       -1.42784
N         -1.30563       -0.05943       -0.04821
C         -1.75754       -1.12986        0.87748
H         -0.90250        2.44540       -5.17384
H          0.48086        3.44519       -3.13866
H         -2.25113        0.34603       -4.23333
H         -1.50946       -1.14404       -1.87380
H         -2.91558       -0.08038       -1.44419
C         -1.26834       -2.52374        0.42190
C         -1.14929       -0.83588        2.25839
C         -3.29748       -1.14232        1.02294
H         -0.16268       -2.53228        0.31530
H         -1.55636       -3.29723        1.16655
H         -1.72426       -2.83224       -0.54014
H         -1.47973        0.15932        2.62600
H         -1.46517       -1.60348        2.99927
H         -0.03999       -0.83885        2.20486
H         -3.66462       -0.15674        1.38188
H         -3.80446       -1.38465        0.06711
H         -3.61234       -1.92002        1.75224
Mg         0.38807        2.21095       -0.23514
C          2.29650        1.07650        4.15990
C          2.89790        2.17072        3.57763
C          3.56030        1.72707        2.44501
C          3.36877        0.41109        2.34271
N          2.57055       -0.07224        3.40190
C          3.93422       -0.47298        1.27189
N          3.43437       -0.05943       -0.04821
C          3.90037       -0.86842       -1.19870
H          2.85651        3.18501        3.95174
H          1.70435        1.08820        5.06525
H          4.14185        2.33656        1.76564
H          3.61854       -1.50983        1.50119
H          5.03944       -0.39909        1.31851
C          3.52829       -2.36045       -1.04102
C          3.19261       -0.32722       -2.45205
C          5.42428       -0.72766       -1.39751
H          2.43512       -2.47441       -0.87776
H          3.80920       -2.92889       -1.95402
H          4.06895       -2.83225       -0.19509
H          3.43662        0.74595       -2.60520
H          3.50601       -0.89096       -3.35819
H          2.09003       -0.42164       -2.34880
H          5.70238        0.34125       -1.51826
H          5.99024       -1.14712       -0.54119
H          5.75046       -1.28055       -2.30505

