%chk=speciation191.chk
%nprocshared=16
%mem=32GB
#p opt=loose PM7 scf=xqc 

 speciation study

0 1
Na         1.57228        1.09679       -0.65342
Mg        -1.04638        6.26331        0.86057
H         -1.94910        8.75396        0.60112
C          0.09444        8.81165       -0.28110
C         -0.95374        8.29993        0.78832
C         -0.18275        8.58924       -1.81059
H          0.18845        9.90999       -0.14919
H          1.07230        8.34630       -0.04327
H         -0.28408        7.50286       -2.04795
H         -1.12049        9.09882       -2.09793
C          0.95476        9.14824       -2.70580
H         -0.60466        8.60043        1.79854
H          1.15820       10.21898       -2.48591
H          1.90296        8.57861       -2.57764
H          0.67910        9.08243       -3.78479
C          2.13158       -1.73819        0.85310
C          1.92525       -3.08700        0.60068
C          1.27881       -3.16639       -0.61480
C          1.11383       -1.86169       -1.04234
N          1.64281       -0.99837       -0.15537
C          0.47069       -1.40035       -2.30318
N          0.46404        0.07908       -2.33442
C          0.93850        0.75206       -3.56430
H          2.22612       -3.91841        1.22989
H          2.62128       -1.32934        1.72552
H          0.97574       -4.07629       -1.12584
H         -0.57865       -1.77179       -2.34127
H          1.02989       -1.85180       -3.14816
C          0.43310        0.15405       -4.90731
C          0.44090        2.20104       -3.48212
C          2.46894        0.71033       -3.56194
H         -0.67244        0.16977       -4.98599
H          0.83710        0.76202       -5.75203
H          0.79500       -0.87865       -5.08799
H          0.73713        2.66516       -2.51910
H          0.84342        2.81184       -4.31838
H         -0.67074        2.21732       -3.54440
H          2.83662        1.08447       -2.59920
H          2.83659       -0.33145       -3.67483
H          2.89063        1.33219       -4.37934
Mg        -0.93530        0.97703       -1.32006
C         -2.24201        3.50466        0.94013
C         -1.89947        2.17320        1.08420
C         -0.52605        2.12542        1.16202
C         -0.09261        3.42943        1.05946
N         -1.13674        4.27662        0.93105
C          1.31253        3.85899        1.12680
N          2.07222        3.24808        0.01755
C          3.48315        3.72264       -0.06844
H         -2.56820        1.32692        1.14241
H         -3.25003        3.88679        0.86707
H          0.08980        1.24709        1.30265
H          1.72008        3.55314        2.11316
H          1.32106        4.96025        1.04691
C          4.29153        3.39118        1.22167
C          4.14297        3.00174       -1.23907
C          3.56854        5.24257       -0.32511
H          4.23311        2.31125        1.46579
H          5.36464        3.66528        1.08839
H          3.92677        3.97658        2.09264
H          3.58503        3.22752       -2.17310
H          5.19593        3.33364       -1.37588
H          4.15356        1.90859       -1.05308
H          2.98177        5.51682       -1.22655
H          3.20231        5.84264        0.53399
H          4.62450        5.55767       -0.48237

