%chk=speciation15.chk
%nprocshared=16
%mem=32GB
#p opt=loose PM7 scf=xqc 

 speciation study

0 1
Na         0.91962       -0.34663       -0.23600
Mg         0.49070        4.26599       -4.21646
C          0.03218       -1.49345        2.39002
C         -1.86451       -0.43798        1.52601
O         -0.43841       -0.52759        1.46126
C         -0.33856       -2.93281        2.00901
C         -2.43330        0.71053        0.70723
H          1.13637       -1.43128        2.41593
H         -0.30289       -1.25760        3.42640
H         -2.34819       -1.36196        1.15225
H         -2.18669       -0.23582        2.57592
H         -2.20510        0.56268       -0.36710
H         -3.53844        0.73251        0.82338
H         -2.04622        1.68484        1.06905
H          0.01507       -3.15352        0.98257
H          0.13814       -3.63993        2.71890
H         -1.43236       -3.10560        2.06824
C          0.43583        4.49710       -1.26478
C          0.27772        3.73923       -0.12327
C          0.08677        2.44584       -0.54776
C          0.13981        2.45571       -1.91664
N          0.34938        3.71758       -2.35483
C         -0.00515        1.28523       -2.83214
N         -0.26525        0.03108       -2.09759
C         -0.53111       -1.15522       -2.95493
H          0.29517        4.08239        0.90284
H          0.60240        5.56400       -1.28893
H         -0.07224        1.59149        0.07005
H          0.93387        1.20836       -3.41508
H         -0.85162        1.52402       -3.50502
C          0.67451       -1.48274       -3.85160
C         -0.79017       -2.35256       -2.02463
C         -1.78276       -0.96530       -3.84599
H          1.56709       -1.61420       -3.22047
H          0.50013       -2.41561       -4.43028
H          0.87105       -0.67663       -4.58815
H         -1.67408       -2.15973       -1.37968
H         -0.98308       -3.27722       -2.61272
H          0.09099       -2.53324       -1.37442
H         -2.67305       -0.72406       -3.22760
H         -1.64134       -0.16494       -4.60052
H         -1.99609       -1.89457       -4.41883
Na         4.43639       -0.22161       -4.09348
C          3.78245       -3.20279       -3.33055
C          3.57580       -4.03324       -2.24915
C          3.67858       -3.24665       -1.11719
C          3.94337       -1.96976       -1.56477
N          4.00954       -1.94673       -2.91016
C          4.24098       -0.75350       -0.74853
N          3.18750       -0.31767        0.20545
C          3.62823        0.88078        0.99916
H          3.39041       -5.09819       -2.28829
H          3.78666       -3.49993       -4.37288
H          3.59681       -3.57967       -0.09051
H          4.45794        0.04637       -1.47936
H          5.16994       -1.00887       -0.20440
C          3.95803        2.09488        0.08728
C          2.49854        1.30131        1.94610
C          4.85218        0.56840        1.90032
H          3.08654        2.36223       -0.54428
H          4.23383        2.98034        0.70060
H          4.83410        1.91484       -0.56782
H          2.26554        0.50088        2.67241
H          2.78174        2.21347        2.51710
H          1.59259        1.53792        1.38373
H          4.61909       -0.27090        2.59066
H          5.76875        0.32011        1.33206
H          5.11274        1.45648        2.51796

