%chk=speciation154.chk
%nprocshared=16
%mem=32GB
#p opt=loose PM7 scf=xqc 

 speciation study

0 1
Na         7.06656        1.89764       -0.16321
Mg         3.89239        2.35823       -2.75654
H          5.54103        2.96418       -4.69313
C          4.20450        1.49664       -5.59754
C          5.01998        2.02117       -4.42283
C          3.11772        2.49085       -6.01125
H          4.88984        1.31229       -6.45395
H          3.73396        0.53444       -5.30112
H          2.43029        2.66763       -5.15616
H          3.58283        3.45749       -6.30434
C          2.31311        1.95210       -7.19201
H          5.78274        1.26375       -4.14407
H          2.97665        1.78763       -8.06814
H          1.82584        0.99118       -6.92055
H          1.52637        2.68259       -7.47449
C          5.44831       -0.79268       -0.29140
C          4.16930       -1.30769       -0.27551
C          3.31117       -0.23371       -0.17567
C          4.10826        0.88906       -0.13135
N          5.40921        0.54987       -0.20359
C          3.63691        2.29620        0.01095
N          2.79244        2.68703       -1.13109
C          2.29104        4.08749       -1.06260
H          3.89627       -2.35322       -0.32598
H          6.36548       -1.36412       -0.35643
H          2.23103       -0.27018       -0.12610
H          3.07873        2.35604        0.96518
H          4.53889        2.93405        0.06323
C          3.45038        5.11477       -1.00897
C          1.46954        4.36491       -2.32739
C          1.37070        4.29470        0.16526
H          4.13282        4.97648       -1.87435
H          3.05350        6.15270       -1.03491
H          4.03899        5.03453       -0.07258
H          0.62613        3.64757       -2.40984
H          1.04931        5.39558       -2.30046
H          2.10584        4.27515       -3.23248
H          0.53003        3.56905        0.14873
H          1.91929        4.18384        1.12246
H          0.94922        5.32322        0.16948

