%chk=speciation13.chk
%nprocshared=16
%mem=32GB
#p opt=loose PM7 scf=xqc 

 speciation study

0 1
Na         0.84410        0.09471        0.32969
Mg         6.34246        4.90942       -6.40116
C         -2.05807       -0.06572       -0.80871
C         -2.04267        1.31924        1.10277
O         -1.47012        0.20493        0.45065
C         -1.83154        1.02448       -1.86103
C         -1.31025        1.56506        2.41221
H         -1.57864       -0.99445       -1.18562
H         -3.13841       -0.30609       -0.70007
H         -1.95988        2.24930        0.50312
H         -3.10749        1.10388        1.34370
H         -0.25332        1.84058        2.20844
H         -1.79774        2.39855        2.96154
H         -1.33598        0.65227        3.04355
H         -0.75020        1.25951       -1.94793
H         -2.20138        0.66289       -2.84392
H         -2.39814        1.94590       -1.61855
C          3.95452       -1.13838        0.24384
C          5.29601       -0.82231        0.16758
C          5.37006        0.54961        0.07612
C          4.06718        1.00669        0.09923
N          3.20820       -0.01788        0.20612
C          3.64497        2.43097        0.05898
N          2.79625        2.70276       -1.11847
C          2.34686        4.12144       -1.19462
H          6.12706       -1.51441        0.18525
H          3.54506       -2.13559        0.33174
H          6.27028        1.14694        0.01107
H          3.09163        2.61511        1.00074
H          4.56506        3.04566        0.03591
C          3.54482        5.10523       -1.25636
C          1.53308        4.28517       -2.48540
C          1.44062        4.49965        0.00208
H          4.22419        4.84585       -2.09640
H          3.18818        6.14782       -1.39987
H          4.13050        5.11499       -0.31404
H          0.65139        3.61033       -2.47715
H          1.17198        5.33288       -2.58859
H          2.15801        4.04428       -3.37151
H          0.56995        3.81333        0.06781
H          1.98838        4.47379        0.96617
H          1.06420        5.53970       -0.10957
Na         4.10625        2.31118       -3.05430
C          7.51759        5.42677       -3.75900
C          7.96109        4.81068       -2.60874
C          7.76145        3.45871       -2.78263
C          7.20609        3.30415       -4.04045
N          7.05248        4.51210       -4.63011
C          6.85276        1.98967       -4.67305
N          5.41624        1.91959       -4.99014
C          4.94687        0.65432       -5.59835
H          8.39563        5.29529       -1.74447
H          7.54392        6.48986       -3.95619
H          8.00914        2.67747       -2.07808
H          7.13096        1.18600       -3.96200
H          7.46053        1.89585       -5.59228
C          5.23126       -0.56130       -4.68847
C          3.42465        0.77646       -5.77281
C          5.57881        0.43289       -6.98787
H          4.80928       -0.39494       -3.67408
H          4.77334       -1.48034       -5.11415
H          6.31870       -0.75832       -4.59778
H          3.17386        1.64576       -6.42108
H          3.00024       -0.13991       -6.23963
H          2.92691        0.92425       -4.78924
H          5.36598        1.29818       -7.65319
H          6.67715        0.29968       -6.92151
H          5.16690       -0.48404       -7.46202

