%chk=speciation1853.chk
%nprocshared=16
%mem=32GB
#p opt=loose PM7 scf=xqc 

 speciation study

0 1
Na         1.02140        0.39942        0.16938
Mg        -2.11822       -0.92829        1.79381
C         -1.22774        2.13108       -0.59506
C          0.76734        2.92213       -1.64362
O          0.18973        2.25365       -0.52156
C         -1.79991        1.58520       -1.91720
C          0.47108        4.42534       -1.65873
H         -1.52175        1.41054        0.19532
H         -1.71438        3.09349       -0.32636
H          1.86917        2.80980       -1.58511
H          0.46609        2.48697       -2.61653
H          0.87086        4.90795       -0.74296
H          0.95447        4.89006       -2.54568
H         -0.61861        4.61950       -1.73450
H         -1.30685        0.62952       -2.19147
H         -2.88947        1.40829       -1.80443
H         -1.68644        2.31633       -2.74653
H         -2.09532       -2.74938       -0.01881
C         -4.19460       -2.82870       -0.05822
C         -2.89460       -2.63093        0.72578
C         -4.20479       -4.22369       -0.71729
H         -5.06909       -2.73714        0.61378
H         -4.26250       -2.04732       -0.84500
H         -3.33071       -4.32483       -1.39925
H         -4.12802       -5.01153        0.06472
C         -5.47516       -4.46481       -1.52537
H         -2.80168       -3.43632        1.48624
H         -6.36771       -4.40750       -0.86623
H         -5.56533       -3.71160       -2.33565
H         -5.43960       -5.47780       -1.98460
C          0.15386       -4.52500       -0.84979
C          0.34836       -3.38763       -1.59178
C          0.46181       -2.34678       -0.69360
C          0.33799       -2.89726        0.56330
N          0.14899       -4.23377        0.46474
C          0.45017       -2.19268        1.87753
N         -0.03854       -0.78672        1.88002
C          0.21660       -0.11438        3.19878
H          0.39734       -3.30873       -2.66673
H          0.03300       -5.52409       -1.24839
H          0.61446       -1.31941       -0.93678
H          1.52935       -2.23718        2.10603
H         -0.09539       -2.80050        2.62968
C          1.69973       -0.16372        3.64540
C         -0.16214        1.36760        3.06226
C         -0.63104       -0.74807        4.33027
H          2.34844        0.30009        2.88389
H          1.84041        0.39924        4.59385
H          2.04807       -1.19384        3.86922
H         -1.22189        1.48519        2.77754
H          0.00132        1.90645        4.02236
H          0.46677        1.85411        2.28623
H         -1.69903       -0.75167        4.07327
H         -0.33791       -1.79482        4.54412
H         -0.50154       -0.18389        5.28084
Na        -0.10818       -5.67262        2.01880
C          4.10239       -0.21392        0.36845
C          3.46994       -0.06247       -1.88031
O          3.01022       -0.11639       -0.53584
C          4.94674        1.06508        0.44529
C          2.32640       -0.16765       -2.87236
H          3.69362       -0.42704        1.36953
H          4.74134       -1.09522        0.13826
H          3.98370        0.90038       -2.08319
H          4.14625       -0.92138       -2.10033
H          1.61074        0.64667       -2.70556
H          2.72294       -0.08423       -3.90603
H          1.80640       -1.13611       -2.78479
H          4.30247        1.94090        0.66512
H          5.70917        0.96304        1.24643
H          5.49691        1.24127       -0.50271
H         -3.49259        0.43261        3.78678
C         -5.18219        0.00746        2.55221
C         -3.69560        0.33949        2.69831
C         -5.53906       -1.33045        3.20951
H         -5.77786        0.81119        3.04528
H         -5.44079       -0.01184        1.47402
H         -4.93757       -2.13900        2.75509
H         -5.30720       -1.30112        4.29636
C         -7.02315       -1.65001        3.02831
H         -3.52904        1.34647        2.26328
H         -7.65004       -0.88793        3.53894
H         -7.28756       -1.67185        1.94889
H         -7.24898       -2.64464        3.46651

