%chk=speciation1216.chk
%nprocshared=16
%mem=32GB
#p opt=loose PM7 scf=xqc 

 speciation study

0 1
Na         0.94399        0.07752       -0.02922
Mg         6.72877        2.67101        4.16485
C         -1.86010       -1.12336        0.54634
C         -1.99160        0.37899       -1.26583
O         -1.37601        0.07752       -0.02922
C         -1.55901       -2.38470       -0.27286
C         -1.38820        1.65541       -1.83343
H         -1.34717       -1.23452        1.52531
H         -2.94536       -1.04387        0.77600
H         -1.83481       -0.41590       -2.02333
H         -3.07852        0.55915       -1.10862
H         -0.31145        1.49947       -2.05805
H         -1.91210        1.92830       -2.77461
H         -1.49351        2.48902       -1.10806
H         -0.47578       -2.44356       -0.50864
H         -1.84873       -3.28087        0.31502
H         -2.14916       -2.41048       -1.21152
H          7.23692        1.50325        1.88215
C          9.25905        2.17426        2.23718
C          7.74610        2.38765        2.32084
C          9.71614        0.93551        3.01389
H          9.53571        2.04848        1.16513
H          9.77295        3.07562        2.63160
H          9.45488        1.05736        4.08554
H          9.20827        0.02781        2.61824
C         11.22846        0.74117        2.89199
H          7.48543        3.26954        1.70053
H         11.51724        0.57358        1.83159
H         11.76540        1.63492        3.27541
H         11.54369       -0.14250        3.48621
C          1.81037       -3.41822        2.09896
C          2.48137       -4.38581        1.39173
C          3.24571       -3.72674        0.46684
C          3.01129       -2.37055        0.63849
N          2.12283       -2.18619        1.64917
C          3.68628       -1.34515       -0.23643
N          3.31399        0.07752       -0.02922
C          3.90128        0.99254       -1.05028
H          2.42611       -5.46221        1.53153
H          1.11863       -3.60954        2.91237
H          3.90277       -4.17708       -0.26735
H          3.40780       -1.65265       -1.25913
H          4.77526       -1.47710       -0.08957
C          3.35094        0.71125       -2.46829
C          3.51630        2.43071       -0.66706
C          5.44763        0.90846       -1.07529
H          2.24226        0.77314       -2.47625
H          3.75029        1.45575       -3.19151
H          3.65779       -0.28027       -2.85640
H          3.91375        2.68312        0.33512
H          3.93686        3.15707       -1.39643
H          2.41139        2.54872       -0.64960
H          5.86608        1.12057       -0.06959
H          5.80701       -0.08738       -1.40777
H          5.86965        1.64499       -1.79266
Na         4.10398        0.96864        2.01985
Mg         1.33340       -0.59398        2.44498
H          7.05978        3.62914        6.67284
C          8.30019        5.04150        5.64632
C          7.75475        3.62473        5.80685
C          7.17523        6.03740        5.35491
H          8.81191        5.33817        6.59165
H          9.04444        5.05244        4.82313
H          6.65506        5.73844        4.42052
H          6.44107        6.03539        6.19161
C          7.72571        7.45260        5.18977
H          8.59837        2.94805        6.06255
H          8.21994        7.79161        6.12601
H          8.46230        7.48382        4.35902
H          6.89523        8.15112        4.95498
C          2.73560        5.89486        2.88268
C          3.84010        5.59934        2.11476
C          4.36187        4.39743        2.57454
C          3.60379        3.97872        3.58753
N          2.54698        4.88505        3.83290
C          3.75922        2.74322        4.42614
N          4.89397        1.85977        4.06893
C          4.97877        0.66256        4.96802
H          4.21659        6.21044        1.30738
H          2.10186        6.76683        2.78268
H          5.23112        3.89349        2.18220
H          2.80447        2.19225        4.29817
H          3.84604        3.11289        5.46170
C          3.75900       -0.27576        4.79076
C          6.24782       -0.12086        4.60080
C          5.08887        1.04064        6.46785
H          3.65981       -0.60063        3.73063
H          3.88032       -1.18549        5.41746
H          2.81368        0.19664        5.10884
H          7.14550        0.51114        4.74450
H          6.35184       -1.01941        5.24510
H          6.20959       -0.45379        3.53893
H          5.96467        1.68825        6.65093
H          4.17955        1.54575        6.85534
H          5.20916        0.13028        7.09432

