%chk=speciation985.chk
%nprocshared=16
%mem=32GB
#p opt=loose PM7 scf=xqc 

 speciation study

0 1
Na         1.41693        1.72215        0.23254
Mg         3.40148       -0.11319       -1.60886
C          0.10847        3.36346        2.61813
C          2.47068        3.60955        2.69791
O          1.37087        2.84539        2.19468
C         -0.12830        4.83982        2.27402
C          2.63951        3.54909        4.22527
H         -0.68218        2.76440        2.12497
H         -0.05537        3.18847        3.70651
H          3.41292        3.22262        2.29845
H          2.43397        4.65400        2.33753
H          2.85209        2.51123        4.55853
H          3.49904        4.19251        4.51430
H          1.75375        3.93515        4.76832
H          0.06795        5.00575        1.19587
H         -1.17482        5.12260        2.51083
H          0.52039        5.50525        2.88354
H          4.31421       -0.66960       -4.10346
C          6.03821        0.20627       -3.11185
C          4.53716        0.14347       -3.38019
C          6.54445       -1.10676       -2.51529
H          6.57192        0.40615       -4.06826
H          6.24024        1.04456       -2.41049
H          6.00478       -1.31692       -1.56796
H          6.35398       -1.93726       -3.23026
C          8.04206       -1.03485       -2.22942
H          4.23018        1.09993       -3.84837
H          8.60670       -0.83529       -3.16556
H          8.25491       -0.22717       -1.49693
H          8.38742       -2.00088       -1.80521
C         -1.61426        0.94776       -0.12916
C         -2.26207       -0.26222       -0.28313
C         -1.28693       -1.24377       -0.25522
C         -0.08159       -0.58971       -0.09038
N         -0.29716        0.73724       -0.00060
C          1.29196       -1.24530       -0.02246
N          2.38419       -0.24335        0.10742
C          3.26870       -0.36702        1.28088
H         -3.32571       -0.40864       -0.40820
H         -2.07557        1.92624       -0.11615
H         -1.44293       -2.31039       -0.35159
H          1.45549       -1.81724       -0.96032
H          1.28579       -1.98352        0.80257
C          4.04813       -1.69840        1.34433
C          4.27887        0.77139        1.14188
C          2.44340       -0.22197        2.57569
H          4.65841       -1.86042        0.43329
H          4.73357       -1.68258        2.22278
H          3.37250       -2.56758        1.47958
H          3.73364        1.70809        0.97618
H          4.93736        0.85624        2.03102
H          4.90723        0.62670        0.23625
H          1.76462        0.63308        2.50848
H          1.79824       -1.10693        2.75107
H          3.10004       -0.10316        3.46120
C          3.09454        3.00375       -1.76361
C          0.82396        3.68052       -2.04104
O          1.72458        2.66941       -1.61388
C          3.51126        4.30264       -1.07891
C          0.88272        3.91773       -3.55932
H          3.66889        2.17820       -1.30332
H          3.39899        2.99529       -2.82983
H         -0.20694        3.33647       -1.81382
H          0.96539        4.62548       -1.48063
H          0.62275        2.98788       -4.10910
H          0.16205        4.71312       -3.84269
H          1.88757        4.25759       -3.88405
H          3.15346        4.30392       -0.03119
H          4.61705        4.38695       -1.09287
H          3.10179        5.18030       -1.62052

