%chk=speciation1196.chk
%nprocshared=16
%mem=32GB
#p opt=loose PM7 scf=xqc 

 speciation study

0 1
Na         0.94731        0.06825        0.05066
Mg         3.92789       -4.05675       -3.18616
C         -1.96155        0.66215       -1.09103
C         -1.95190        0.62415        1.21521
O         -1.37269        0.06825        0.05066
C         -1.34940        0.09399       -2.36284
C         -1.33258        0.00535        2.45854
H         -3.04705        0.41057       -1.12291
H         -1.82766        1.76786       -1.09440
H         -1.80884        1.72781        1.25697
H         -3.03925        0.37983        1.24586
H         -0.25434        0.26066        2.51793
H         -1.84629        0.40269        3.36089
H         -1.45219       -1.09859        2.43906
H         -1.45215       -1.01143       -2.38029
H         -1.88091        0.51426       -3.24438
H         -0.27673        0.36609       -2.43180
H          4.18738       -5.46806       -5.60825
C          3.74031       -7.19026       -4.43641
C          4.43348       -5.81896       -4.58326
C          4.13585       -7.86810       -3.12350
H          2.63970       -7.04936       -4.48918
H          4.03581       -7.86222       -5.27979
H          5.23004       -8.07022       -3.13110
H          3.89787       -7.18540       -2.28573
C          3.39562       -9.18810       -2.89993
H          5.53170       -5.99430       -4.57493
H          2.29855       -9.01672       -2.86984
H          3.62859       -9.92330       -3.70002
H          3.70872       -9.61941       -1.92468
C          3.07446       -4.59465       -0.36272
C          2.72331       -4.11959        0.88246
C          2.85588       -2.74408        0.83133
C          3.31624       -2.44084       -0.43796
N          3.44258       -3.58610       -1.19150
C          3.62105       -1.02849       -0.93024
N          3.31731        0.06825        0.05066
C          3.51713        1.43784       -0.47390
H          2.38559       -4.69124        1.73271
H          3.05457       -5.63611       -0.64936
H          2.64980       -2.06535        1.63926
H          3.03352       -0.89405       -1.85972
H          4.70661       -1.03719       -1.17885
C          2.46211        1.77191       -1.56689
C          3.33571        2.37146        0.72680
C          4.91536        1.65651       -1.09277
H          1.42333        1.68920       -1.20020
H          2.58137        2.81413       -1.92628
H          2.56708        1.11889       -2.45798
H          4.10939        2.13717        1.49188
H          3.42794        3.43837        0.43932
H          2.34056        2.20284        1.19462
H          5.72081        1.49617       -0.34923
H          5.08304        0.98904       -1.96471
H          4.99338        2.69417       -1.48677
Na         4.10730       -0.52422        2.20514
Mg         7.49356        0.81505        7.24711
H          4.19237       -1.54750       -4.06019
C          4.65777       -2.57925       -5.90412
C          4.73675       -2.46194       -4.37915
C          3.20878       -2.72461       -6.37934
H          5.10544       -1.67010       -6.36711
H          5.25447       -3.45755       -6.22709
H          2.74481       -3.60721       -5.89228
H          2.62896       -1.81844       -6.09840
C          3.13897       -2.91228       -7.89444
H          5.80289       -2.33721       -4.09286
H          3.57010       -2.03350       -8.41990
H          3.69667       -3.82530       -8.19519
H          2.07960       -3.02870       -8.20693
C          4.93238       -2.38770        4.80421
C          5.40227       -2.43166        6.10036
C          5.65825       -1.13058        6.46963
C          5.33401       -0.34729        5.37884
N          4.89729       -1.11669        4.35962
C          5.43390        1.14463        5.33086
N          6.82872        1.54688        5.56382
C          7.11553        2.99769        5.53726
H          5.53462       -3.31466        6.71095
H          4.62523       -3.24241        4.21663
H          6.02985       -0.79449        7.42817
H          5.08640        1.48635        4.33474
H          4.76970        1.55164        6.11971
C          6.32244        3.76106        6.62078
C          8.61618        3.16302        5.83352
C          6.81369        3.59338        4.14767
H          6.53360        3.34256        7.62828
H          6.60614        4.83631        6.62204
H          5.22968        3.71407        6.43769
H          9.22516        2.60497        5.09039
H          8.91440        4.23365        5.80188
H          8.85763        2.76693        6.84433
H          7.35363        3.02593        3.35990
H          5.72742        3.56914        3.92377
H          7.13217        4.65696        4.10119

