%chk=speciation1507.chk
%nprocshared=16
%mem=32GB
#p opt=loose PM7 scf=xqc 

 speciation study

0 1
Na         3.62235        5.24121        2.21689
Mg         2.25458        4.52867       -1.00513
C          3.31996        7.13211       -0.35581
C          4.63797        6.06188       -1.96556
O          3.66985        5.88132       -0.93655
C          2.70407        8.18032       -1.30198
C          4.93924        4.78168       -2.70829
H          2.58943        6.92249        0.43487
H          4.19522        7.56533        0.17522
H          4.29460        6.75597       -2.75440
H          5.59406        6.41416       -1.51486
H          4.03291        4.38396       -3.19963
H          5.71971        4.96580       -3.47560
H          5.33701        4.04277       -2.02047
H          1.81833        7.78366       -1.81958
H          2.38220        9.06398       -0.71480
H          3.43151        8.55468       -2.05019
H          0.85353        6.12616       -2.72070
C         -0.07326        4.47594       -3.65587
C          1.14220        5.08474       -2.93268
C         -1.29400        4.38796       -2.74080
H         -0.31838        5.10053       -4.54803
H          0.16647        3.46723       -4.06247
H         -1.04607        3.76288       -1.85652
H         -1.57061        5.40677       -2.39302
C         -2.48851        3.76198       -3.45905
H          1.96123        5.10186       -3.67905
H         -2.79247        4.38456       -4.32945
H         -2.23872        2.74015       -3.81423
H         -3.34775        3.69168       -2.75851
C          6.42489        4.90855        1.03014
C          7.26272        4.10844        0.27650
C          6.51904        3.01619       -0.12124
C          5.23996        3.21433        0.38088
N          5.19878        4.35635        1.09401
C          4.08603        2.26540        0.23090
N          3.22961        2.52989       -0.95821
C          2.26095        1.41724       -1.21174
H          8.30274        4.29994        0.05067
H          6.69657        5.83054        1.50698
H          6.87058        2.18473       -0.71214
H          4.54454        1.25681        0.16038
H          3.49017        2.28308        1.17044
C          1.23349        1.29304       -0.07522
C          1.53582        1.76259       -2.49442
C          2.91161        0.02427       -1.43122
H          0.75688        2.26010        0.08407
H          0.43967        0.55910       -0.32944
H          1.70959        0.96398        0.87036
H          2.24220        1.84366       -3.35121
H          0.74088        1.03026       -2.74864
H          1.07000        2.71826       -2.29113
H          3.70584        0.05265       -2.20568
H          3.32503       -0.40804       -0.49814
H          2.14039       -0.70180       -1.78175
Na         4.53205        2.14708       -2.63597
H          0.04996        4.07396        0.75764
C          0.02337        6.11801        1.27326
C          0.82705        4.85133        0.84930
C         -0.79775        5.89465        2.57349
H          0.69943        6.97527        1.45315
H         -0.67726        6.38490        0.45423
H         -1.50677        5.05112        2.43065
H         -0.11845        5.64177        3.41766
C         -1.61523        7.13065        2.98117
H          1.48916        4.58425        1.69837
H         -0.95146        7.99242        3.20665
H         -2.32476        7.41873        2.17691
H         -2.20924        6.90949        3.89702

