%chk=speciation351.chk
%nprocshared=16
%mem=32GB
#p opt=loose PM7 scf=xqc 

 speciation study

0 1
Na         6.76777        0.35033       -0.07930
Mg         2.27308        4.54118       -1.08401
C          6.43182       -2.69062        0.72556
C          8.65228       -2.14881        0.15032
O          7.27977       -1.91234       -0.10372
C          6.59535       -2.43677        2.23155
C          9.49734       -1.24485       -0.73678
H          5.38790       -2.42956        0.45316
H          6.54988       -3.77279        0.49618
H          8.93761       -1.91061        1.19507
H          8.90712       -3.20318       -0.09783
H          9.30565       -0.17925       -0.48668
H         10.57463       -1.45822       -0.56620
H          9.26095       -1.41801       -1.80718
H          6.50046       -1.35358        2.45381
H          5.80914       -2.99081        2.78552
H          7.57012       -2.81221        2.60616
H          4.35612        5.63301       -2.58027
C          2.59485        6.48027       -3.51805
C          3.32908        5.31527       -2.85881
C          3.32415        7.03576       -4.75862
H          1.58327        6.13268       -3.81573
H          2.49778        7.28679       -2.76381
H          4.34342        7.38244       -4.48001
H          3.42336        6.25143       -5.54309
C          2.55064        8.22080       -5.34019
H          3.42944        4.49594       -3.60434
H          1.53893        7.89766       -5.66661
H          2.44482        9.01989       -4.57533
H          3.08730        8.64374       -6.21622
C          7.09076        3.69851        0.08257
C          6.39235        4.88786        0.05800
C          5.05991        4.56404       -0.08961
C          4.99743        3.18595       -0.16265
N          6.24474        2.66176       -0.05437
C          3.72797        2.37188       -0.31672
N          2.96943        2.76466       -1.51967
C          1.73387        1.98760       -1.82153
H          6.81000        5.88206        0.14167
H          8.16172        3.59528        0.19373
H          4.23215        5.25817       -0.14074
H          4.00475        1.29954       -0.35353
H          3.10614        2.57399        0.57220
C          0.70265        2.09477       -0.68152
C          1.08629        2.58670       -3.08890
C          2.04143        0.50438       -2.10646
H          0.41850        3.15010       -0.51972
H         -0.22783        1.54397       -0.93565
H          1.09213        1.66668        0.26150
H          1.76731        2.50359       -3.96224
H          0.14194        2.05228       -3.33959
H          0.83675        3.65940       -2.93872
H          2.77279        0.41237       -2.93681
H          2.43738       -0.01325       -1.21109
H          1.11079       -0.02826       -2.40483
Mg         4.15213        2.54505       -3.06061
C          0.31134        6.34540        0.01966
C         -0.51093        6.77702        1.02495
C         -0.24276        5.98252        2.11067
C          0.72925        5.08636        1.71250
N          1.08595        5.31767        0.41670
C          1.20042        3.97447        2.63839
N          2.63270        4.05177        2.97399
C          3.11078        3.02477        3.95079
H         -1.25247        7.56616        0.98287
H          0.32196        6.75107       -0.98437
H         -0.73798        6.03044        3.07777
H          0.60949        4.04669        3.57574
H          0.95859        3.01370        2.15398
C          2.82766        1.58300        3.46538
C          4.63018        3.18478        4.09692
C          2.48082        3.20805        5.35641
H          3.28074        1.40857        2.46968
H          3.25322        0.83720        4.16529
H          1.73637        1.37462        3.40233
H          4.87876        4.19486        4.48982
H          5.04259        2.43234        4.80457
H          5.13315        3.05355        3.11605
H          2.70733        4.21560        5.76600
H          1.38213        3.05942        5.35621
H          2.89424        2.45397        6.06436

