%chk=speciation1072.chk
%nprocshared=16
%mem=32GB
#p opt=loose PM7 scf=xqc 

 speciation study

0 1
Na         0.93403        0.02915        0.06927
Mg         4.35288        1.70451        0.76285
C         -1.90227        1.22274       -0.49292
C         -1.99110       -0.30216        1.30317
O         -1.38597        0.02915        0.06927
C         -1.63638        2.48237        0.34046
C         -1.35774       -1.57281        1.84989
H         -1.39570        1.35810       -1.47203
H         -2.98555        1.11552       -0.72112
H         -1.84484        0.48533        2.07030
H         -3.07515       -0.50261        1.14966
H         -0.27976       -1.40018        2.05644
H         -1.86017       -1.86137        2.79802
H         -1.46217       -2.40218        1.11950
H         -0.55420        2.57183        0.57062
H         -1.95828        3.37600       -0.23440
H         -2.22083        2.47812        1.28291
H          3.50303        0.76435        3.13367
C          4.59304        2.42118        3.95222
C          4.41972        1.33910        2.89285
C          3.38319        3.35066        4.01912
H          4.70158        1.91583        4.93955
H          5.52202        2.99522        3.74788
H          3.26306        3.87835        3.05415
H          2.46550        2.75458        4.21944
C          3.55083        4.37284        5.13984
H          5.27904        0.65377        3.02070
H          3.64516        3.85665        6.12008
H          4.45705        4.99122        4.96728
H          2.66258        5.03728        5.17385
C          7.30471       -1.21200        1.13544
C          7.01855       -2.55844        1.14954
C          5.64269       -2.69071        1.05572
C          5.10691       -1.47139        0.98640
N          6.11181       -0.48044        1.04293
C          3.62899       -1.18932        0.84428
N          3.30403        0.02915        0.06927
C          3.59927       -0.00972       -1.39642
H          7.74730       -3.35545        1.21404
H          8.29284       -0.77344        1.18421
H          5.09626       -3.62369        1.03300
H          3.22280       -1.06279        1.86466
H          3.09459       -2.07757        0.44891
C          2.86061       -1.15098       -2.11798
C          3.11566        1.32507       -1.96879
C          5.10960       -0.12525       -1.72656
H          1.77284       -1.09506       -1.93193
H          3.04284       -1.09227       -3.21039
H          3.24080       -2.14196       -1.78125
H          3.67581        2.13573       -1.47060
H          3.30177        1.39585       -3.06247
H          2.03398        1.47100       -1.77630
H          5.67768        0.66830       -1.21208
H          5.53099       -1.10989       -1.46042
H          5.28623       -0.00595       -2.81660
C          4.38242        4.62467        0.16756
C          6.20466        3.40075       -0.78890
O          5.17684        3.43772        0.20264
C          3.76308        4.99817       -1.19411
C          7.26120        4.51308       -0.64477
H          3.54671        4.49121        0.87796
H          4.97082        5.48323        0.55790
H          6.77170        2.46001       -0.66157
H          5.78167        3.38999       -1.81252
H          7.77651        4.43971        0.33603
H          8.02365        4.40039       -1.44785
H          6.82409        5.52535       -0.75576
H          3.08591        4.20850       -1.56583
H          3.15647        5.91902       -1.07660
H          4.53471        5.22015       -1.96054

