%chk=speciation1198.chk
%nprocshared=16
%mem=32GB
#p opt=loose PM7 scf=xqc 

 speciation study

0 1
Na         0.95628       -0.06762       -0.05930
Mg         3.81850       -2.87109        3.92023
C         -2.05579       -0.93023        0.81277
C         -2.26424        0.76861       -0.75737
O         -1.36372       -0.06762       -0.05930
C         -1.05882       -1.73642        1.62124
C         -1.52292        1.65062       -1.74770
H         -2.68219       -0.35407        1.53266
H         -2.67725       -1.64639        0.22965
H         -2.99382        0.16028       -1.34254
H         -2.79614        1.43479       -0.04251
H         -1.05264        1.03241       -2.54105
H         -2.24688        2.34858       -2.22279
H         -0.74500        2.24283       -1.22360
H         -0.44615       -1.06100        2.25573
H         -1.61407       -2.44378        2.26679
H         -0.39489       -2.31662        0.94747
H          6.51712       -3.88606        4.29571
C          6.97416       -2.77319        2.51757
C          5.99117       -3.64537        3.34482
C          7.23953       -1.44788        3.23708
H          7.94877       -3.30210        2.36026
H          6.54037       -2.58444        1.51364
H          6.26033       -0.96635        3.42182
H          7.74573       -1.64092        4.20869
C          8.09590       -0.47285        2.42965
H          5.90095       -4.61460        2.80320
H          9.13499       -0.84199        2.29135
H          7.63906       -0.28560        1.43564
H          8.14089        0.49353        2.97874
C          2.24390       -0.29673        4.38024
C          1.84475        0.88277        3.77591
C          2.34297        0.85624        2.49877
C          3.02696       -0.33370        2.37741
N          2.98602       -1.04078        3.53061
C          3.72158       -0.81613        1.15917
N          3.32628       -0.06762       -0.05930
C          4.04692       -0.56912       -1.27721
H          1.25273        1.67823        4.20887
H          1.99685       -0.59010        5.39000
H          2.22602        1.61978        1.74569
H          3.43416       -1.87735        1.05719
H          4.80328       -0.73132        1.37739
C          3.72212       -2.05249       -1.57698
C          3.61731        0.26709       -2.49350
C          5.58820       -0.42311       -1.14127
H          2.62819       -2.20080       -1.68615
H          4.21882       -2.37346       -2.51908
H          4.10683       -2.73336       -0.79020
H          3.87184        1.33800       -2.34641
H          4.14983       -0.08457       -3.40779
H          2.52714        0.17343       -2.67376
H          5.87000        0.63363       -0.95930
H          6.01086       -1.04796       -0.33142
H          6.09910       -0.76699       -2.06715
Na         3.96339        2.07361        0.22608
Mg         5.38828        4.20381        2.39212
H          2.32620       -5.13050        4.72166
C          0.96818       -3.77897        5.72880
C          2.39571       -4.13933        5.21864
C         -0.07315       -3.61620        4.61251
H          0.61075       -4.59334        6.40458
H          1.00923       -2.84500        6.32914
H          0.24949       -2.79462        3.94420
H         -0.14927       -4.55772        4.02618
C         -1.46717       -3.28712        5.17538
H          3.00406       -4.28812        6.13710
H         -1.84258       -4.10869        5.82316
H         -1.44391       -2.34581        5.76458
H         -2.19843       -3.15630        4.35019
C          8.53689        2.01312       -0.85108
C          8.62581        2.18277        0.51148
C          7.65090        3.09174        0.88589
C          6.99862        3.46511       -0.21730
N          7.50262        2.80952       -1.35770
C          5.91994        4.49939       -0.29580
N          4.74829        4.17584        0.55075
C          3.66577        5.19603        0.47953
H          9.34399        1.69664        1.15560
H          9.16843        1.37387       -1.45185
H          7.47193        3.45904        1.88750
H          5.62809        4.58402       -1.35924
H          6.37446        5.44524        0.04528
C          3.10963        5.35265       -0.95712
C          2.50345        4.73658        1.37810
C          4.13364        6.57953        0.99775
H          2.76824        4.37075       -1.35247
H          2.24641        6.05312       -0.96762
H          3.85832        5.77992       -1.65404
H          2.84059        4.61688        2.42945
H          1.67608        5.48326        1.36544
H          2.09256        3.77262        1.01962
H          4.48296        6.50621        2.04964
H          4.94667        7.01200        0.38298
H          3.30182        7.31370        0.96212

