%chk=speciation1001.chk
%nprocshared=16
%mem=32GB
#p opt=loose PM7 scf=xqc 

 speciation study

0 1
Na         3.02740        2.04990       -4.30684
Mg        -2.84858       -0.20648       -2.14475
C          3.74983        4.87800       -4.16399
C          1.57095        4.57576       -3.25862
O          2.54129        4.13220       -4.20512
C          4.42630        4.93889       -2.78884
C          1.01453        5.97463       -3.58198
H          4.44472        4.37808       -4.86019
H          3.61674        5.89199       -4.59692
H          0.71025        3.87921       -3.27956
H          1.95229        4.53556       -2.22015
H          0.49641        5.97330       -4.56432
H          0.28662        6.27707       -2.79899
H          1.81092        6.74729       -3.59669
H          4.52748        3.91623       -2.36944
H          5.43224        5.39517       -2.88875
H          3.85176        5.58001       -2.08759
H         -4.46854        2.22774       -2.20689
C         -2.90656        2.70720       -3.54753
C         -3.37459        2.05276       -2.25449
C         -3.54554        2.04503       -4.78461
H         -3.11816        3.80197       -3.58089
H         -1.81033        2.62448       -3.53759
H         -4.58538        2.41071       -4.92181
H         -2.97034        2.35498       -5.68371
C         -3.61753        0.51547       -4.66967
H         -2.90963        2.60541       -1.40905
H         -2.65552        0.06539       -4.37821
H         -4.35528        0.24132       -3.88584
H         -3.94296        0.06891       -5.62797
C         -1.32840       -2.72046       -2.94207
C         -0.13799       -3.30326       -3.30660
C          0.78271       -2.30347       -3.37606
C          0.10951       -1.13130       -3.07546
N         -1.20247       -1.37619       -2.79162
C          0.79091        0.20635       -3.09197
N          1.55566        0.42599       -4.35281
C          0.82262        0.59185       -5.63608
H          0.03810       -4.34308       -3.49028
H         -2.23865       -3.27324       -2.83080
H          1.83424       -2.40400       -3.63082
H          1.53594        0.18659       -2.26487
H          0.08566        1.03104       -2.86863
C         -0.25590        1.64425       -5.49221
C          1.79714        1.10714       -6.70858
C          0.20889       -0.73496       -6.14509
H          0.16200        2.58403       -5.07842
H         -0.76296        1.85862       -6.45500
H         -0.98343        1.23081       -4.80686
H          2.60683        0.37778       -6.90768
H          1.25777        1.28269       -7.66571
H          2.24364        2.07605       -6.40360
H          0.99628       -1.51002       -6.26290
H         -0.58332       -1.12447       -5.47975
H         -0.28406       -0.58426       -7.12911
Mg        -5.05031        3.24467        0.66970
C          4.67530       -0.30752       -4.97424
C          5.98508        1.67290       -4.90733
O          4.71829        1.09928       -5.21217
C          5.01859       -0.73809       -3.54419
C          7.10902        1.20177       -5.84486
H          3.64487       -0.65095       -5.17122
H          5.28123       -0.86182       -5.72100
H          5.91670        2.76580       -5.04699
H          6.26085        1.52220       -3.84566
H          6.89128        1.49779       -6.89300
H          8.06652        1.67190       -5.53537
H          7.26104        0.10440       -5.80185
H          4.38700       -0.18498       -2.81864
H          4.83033       -1.82645       -3.43389
H          6.09199       -0.57471       -3.31760
C         -4.24568       -2.57061       -0.86088
C         -4.95500       -3.00153        0.24225
C         -5.15757       -1.89662        1.02651
C         -4.57756       -0.83211        0.35427
N         -3.98754       -1.24281       -0.78995
C         -4.61226        0.57675        0.84298
N         -5.38415        1.46239       -0.04909
C         -6.86138        1.30338       -0.13684
H         -5.28614       -4.01139        0.45005
H         -3.93836       -3.22276       -1.65056
H         -5.68646       -1.85982        1.96776
H         -5.01125        0.63275        1.87382
H         -3.56541        0.93932        0.89243
C         -7.52329        1.34740        1.25594
C         -7.41090        2.48509       -0.95889
C         -7.26237        0.01541       -0.88894
H         -7.26392        2.29603        1.77439
H         -8.62930        1.28965        1.16375
H         -7.20817        0.49337        1.88849
H         -7.00660        2.47210       -1.99362
H         -8.52111        2.42802       -1.02688
H         -7.14626        3.45510       -0.48772
H         -6.74605       -0.03306       -1.87278
H         -7.03935       -0.89803       -0.32018
H         -8.35856       -0.00984       -1.06656

