%chk=speciation1163.chk
%nprocshared=16
%mem=32GB
#p opt=loose PM7 scf=xqc 

 speciation study

0 1
Na         1.34144       -0.33755       -2.98109
C         -1.33291       -1.59408       -3.94033
C         -1.35991        0.73511       -4.31400
O         -0.92615       -0.31985       -3.47113
C         -0.75124       -1.99330       -5.30212
C         -0.84847        2.07632       -3.80039
H         -0.96582       -2.33227       -3.19654
H         -2.44164       -1.68295       -3.93761
H         -0.98050        0.63166       -5.35204
H         -2.47054        0.77864       -4.30887
H          0.25478        2.12833       -3.89974
H         -1.27963        2.89888       -4.41067
H         -1.13921        2.22999       -2.74000
H          0.35115       -1.86504       -5.30614
H         -0.98933       -3.05967       -5.50119
H         -1.20238       -1.40191       -6.12511
C          3.57322        4.09624       -1.72311
C          2.27388        3.69595       -1.97846
C          2.25492        2.32734       -1.85401
C          3.54332        1.94213       -1.54748
N          4.35335        3.02358       -1.44429
C          3.96969        0.51575       -1.31461
N          3.65789       -0.35563       -2.48050
C          4.07741       -1.77345       -2.32765
H          1.43570        4.33423       -2.21814
H          3.93057        5.12305       -1.71693
H          1.39290        1.68561       -1.97618
H          3.42031        0.16137       -0.42196
H          5.05650        0.53117       -1.11005
C          3.41071       -2.44696       -1.10476
C          3.62677       -2.53084       -3.58727
C          5.61286       -1.89437       -2.21074
H          2.30549       -2.34684       -1.15519
H          3.66069       -3.53060       -1.07592
H          3.76797       -2.01384       -0.14772
H          4.08886       -2.09052       -4.49587
H          3.92439       -3.60164       -3.52837
H          2.52186       -2.48670       -3.69517
H          6.10646       -1.41235       -3.08120
H          5.99439       -1.42648       -1.28071
H          5.91868       -2.96247       -2.17693
Na         6.48295        3.15030       -0.88640
Mg         7.47202        6.88141       -2.58141
C          7.58617        4.54184       -4.38413
C          8.08813        3.25928       -4.47866
C          8.77157        3.01597       -3.30610
C          8.65205        4.16434       -2.54491
N          7.93555        5.09144       -3.20592
C          9.21101        4.36468       -1.17454
N          8.59562        3.37554       -0.28451
C          9.00111        3.44047        1.14808
H          7.96515        2.57559       -5.30780
H          6.99203        5.04551       -5.13525
H          9.28981        2.10630       -3.03528
H          8.95709        5.38863       -0.84739
H         10.31183        4.23867       -1.21494
C          8.69324        4.81156        1.79181
C          8.20342        2.36426        1.90206
C         10.50945        3.13227        1.31959
H          7.61680        5.06287        1.69413
H          8.95004        4.79245        2.87401
H          9.29966        5.62342        1.33996
H          8.41282        1.35837        1.47936
H          8.47224        2.35480        2.98279
H          7.11414        2.56495        1.81397
H         10.76236        2.14302        0.88334
H         11.14316        3.90561        0.83979
H         10.78429        3.11626        2.39856

