%chk=speciation821.chk
%nprocshared=16
%mem=32GB
#p opt=loose PM7 scf=xqc 

 speciation study

0 1
Na         6.48059        5.91543       -0.95835
Mg         2.32884        4.33583       -0.96309
H          2.03492        6.74899       -2.16361
C          2.23008        5.48114       -3.91518
C          2.57519        5.82825       -2.45968
C          0.72957        5.27409       -4.11553
H          2.56841        6.31689       -4.56866
H          2.76643        4.56309       -4.22369
H          0.38478        4.42706       -3.48557
H          0.18881        6.19659       -3.81306
C          0.40331        4.98129       -5.58188
H          3.65696        6.05744       -2.40659
H          0.71909        5.82921       -6.22813
H          0.91869        4.05797       -5.92291
H         -0.69199        4.84124       -5.69987
C          5.96070        5.01281       -3.86062
C          5.43020        4.03317       -4.67123
C          4.92086        3.06428       -3.83323
C          5.15308        3.50211       -2.54022
N          5.79813        4.68746       -2.56441
C          4.78415        2.76757       -1.27709
N          3.32277        2.56409       -1.17123
C          2.89702        1.70437       -0.03586
H          5.41712        4.02660       -5.75372
H          6.44346        5.91994       -4.19905
H          4.43735        2.14969       -4.14336
H          5.31961        1.79839       -1.32397
H          5.15284        3.35072       -0.40987
C          3.23672        2.37136        1.30899
C          1.36843        1.51955       -0.16944
C          3.52688        0.29380       -0.06024
H          2.88410        3.41361        1.32936
H          2.78120        1.81488        2.15609
H          4.33123        2.39864        1.47159
H          1.12625        0.96741       -1.10511
H          0.95990        0.92811        0.68113
H          0.84318        2.49145       -0.21106
H          3.32790       -0.22991       -1.01647
H          4.62058        0.31835        0.12105
H          3.10053       -0.32829        0.76160
Na         2.62763        1.53877       -2.91743
H          0.09665        5.39716        0.21432
C          1.43013        6.27787        1.67216
C          1.06564        5.14743        0.69157
C          1.54046        7.63734        0.97745
H          0.62235        6.34624        2.43820
H          2.37919        6.03574        2.19840
H          2.36198        7.60227        0.23343
H          0.58440        7.86498        0.45669
C          1.81400        8.76153        1.98104
H          0.86704        4.25393        1.32049
H          0.98062        8.84779        2.71264
H          2.75956        8.57573        2.53289
H          1.90251        9.72868        1.44165

