%chk=speciation2275.chk
%nprocshared=16
%mem=32GB
#p opt=loose PM7 scf=xqc 

 speciation study

0 1
Na         1.04754        0.12962        0.32124
Mg         1.86288       -4.98291       -2.19285
C          3.94674       -1.24650        0.17785
C          3.57840        0.25628       -1.57947
O          3.02368       -0.35748       -0.43522
C          5.08137       -0.50355        0.89133
C          2.52787        1.08029       -2.29422
H          3.39789       -1.85116        0.92018
H          4.35305       -1.99196       -0.54373
H          4.39317        0.96103       -1.29977
H          3.95068       -0.50325       -2.31385
H          2.98111        1.57807       -3.17872
H          2.14018        1.85700       -1.60569
H          1.69875        0.42611       -2.63026
H          4.65965        0.26058        1.57495
H          5.75504       -0.00924        0.16018
H          5.69800       -1.21801        1.47532
H          3.26583       -4.32111       -4.34511
C          4.04054       -6.32571       -4.21404
C          3.54748       -5.03515       -3.54143
C          2.96285       -6.96214       -5.09911
H          4.92334       -6.08106       -4.84749
H          4.36620       -7.05253       -3.44710
H          2.07557       -7.21157       -4.47981
H          2.65801       -6.24671       -5.89461
C          3.47891       -8.23951       -5.76561
H          4.39070       -4.58522       -2.97520
H          4.34772       -8.01569       -6.42194
H          3.78787       -8.98037       -4.99756
H          2.67644       -8.69015       -6.38758
C          0.43678       -2.69494       -3.42088
C         -0.36616       -1.59670       -3.18583
C         -0.57115       -1.55119       -1.82576
C          0.11479       -2.61787       -1.29076
N          0.72601       -3.33046       -2.26277
C          0.19702       -2.95654        0.16423
N         -0.18139       -1.79456        0.98442
C         -0.08163       -1.99721        2.45540
H         -0.75420       -0.90591       -3.92068
H          0.80096       -3.00793       -4.39100
H         -1.17339       -0.81426       -1.30084
H          1.24674       -3.22243        0.35703
H         -0.46339       -3.83113        0.35060
C          1.34943       -2.34714        2.91030
C         -0.48579       -0.67394        3.13033
C         -1.05240       -3.09481        2.94072
H          2.05169       -1.54214        2.62097
H          1.38811       -2.44407        4.01703
H          1.69148       -3.31724        2.49539
H         -1.52116       -0.38604        2.84847
H         -0.44118       -0.76439        4.23835
H          0.19798        0.14408        2.82059
H         -2.09053       -2.83756        2.65931
H         -0.80091       -4.09010        2.52314
H         -1.01459       -3.18674        4.04812
Na        -2.51149       -1.42544        0.75790
Mg         0.09585        3.19441       -2.76715
C         -5.18069        0.29195        0.44501
C         -5.58790       -1.71385        1.50861
O         -4.79242       -1.06412        0.53616
C         -4.35302        0.99511       -0.61451
C         -5.21242       -3.18525        1.59753
H         -6.24248        0.35889        0.11308
H         -5.04922        0.82172        1.41599
H         -5.47043       -1.24852        2.51362
H         -6.65748       -1.68365        1.19670
H         -5.90581       -3.70365        2.29416
H         -4.18165       -3.29692        1.98065
H         -5.28405       -3.66346        0.59812
H         -4.43819        0.46701       -1.58753
H         -3.29663        1.00852       -0.29874
H         -4.70931        2.04066       -0.73723
H          2.03294       -5.48107        0.41722
C          2.17454       -7.53403       -0.21072
C          1.62603       -6.11825       -0.39586
C          3.70166       -7.55256       -0.29201
H          1.86157       -7.90518        0.79197
H          1.74200       -8.20329       -0.98490
H          4.00770       -7.19871       -1.29096
H          4.13593       -6.87126        0.47198
C          4.25797       -8.95709       -0.06593
H          0.52222       -6.15653       -0.27764
H          4.02815       -9.30308        0.96487
H          3.82317       -9.67243       -0.79596
H          5.36088       -8.94408       -0.19618
C         -1.70159        5.31548       -1.76473
C         -2.44041        5.68361       -0.65965
C         -2.25908        4.69379        0.28360
C         -1.40430        3.76202       -0.28504
N         -1.06819        4.14176       -1.53366
C         -0.88962        2.51783        0.37625
N          0.58219        2.45824        0.48086
C          1.22751        3.47973        1.38362
H         -3.03557        6.58136       -0.55594
H         -1.61730        5.87350       -2.68330
H         -2.69333        4.67066        1.27584
H         -1.19884        1.66808       -0.25771
H         -1.36071        2.36049        1.36730
C          0.61408        3.47893        2.80370
C          2.72849        3.15442        1.48328
C          1.13888        4.93385        0.82977
H          0.69101        2.48213        3.27725
H          1.13653        4.22081        3.45069
H         -0.44912        3.80105        2.78505
H          3.26373        3.45985        0.55656
H          3.19638        3.71049        2.32847
H          2.88606        2.07019        1.64083
H          1.51040        4.98615       -0.21638
H          0.12549        5.36228        0.86747
H          1.74742        5.63337        1.44485

