%chk=speciation14.chk
%nprocshared=16
%mem=32GB
#p opt=loose PM7 scf=xqc 

 speciation study

0 1
Na         1.06176        0.39662        0.26893
Mg         0.49251       -1.51264        6.15716
C         -0.29996        0.87933       -2.49049
C         -1.49401       -0.73686       -1.38356
O         -0.23800       -0.06778       -1.43555
C          1.04751        1.53369       -2.72181
C         -1.50711       -1.83921       -0.35173
H         -0.55754        0.37177       -3.45147
H         -1.05129        1.67197       -2.27155
H         -2.32709       -0.03179       -1.15437
H         -1.68855       -1.25049       -2.35499
H         -1.48906       -1.37108        0.63463
H         -2.45509       -2.41417       -0.42111
H         -0.65272       -2.53191       -0.50197
H          1.81066        0.76962       -2.96309
H          0.96809        2.22530       -3.58823
H          1.35216        2.10504       -1.82305
C         -2.40751       -1.21903        5.73387
C         -3.34935       -0.94480        4.76581
C         -2.65766       -0.74130        3.58780
C         -1.31196       -0.88819        3.89280
N         -1.17179       -1.18550        5.20054
C         -0.13977       -0.74936        2.94725
N         -0.09073        0.55567        2.23528
C          0.24726        1.75390        3.05973
H         -4.42208       -0.90043        4.90877
H         -2.61498       -1.42957        6.77502
H         -3.09908       -0.50521        2.63060
H         -0.20907       -1.56667        2.21704
H          0.81224       -0.95836        3.46941
C          1.53178        1.56083        3.87934
C          0.44810        2.94507        2.10761
C         -0.91905        2.14251        4.01448
H          2.38510        1.31344        3.20932
H          1.78134        2.48663        4.44172
H          1.42524        0.75950        4.63714
H         -0.46690        3.13455        1.50787
H          0.67870        3.87055        2.68390
H          1.29191        2.75268        1.41484
H         -1.86196        2.28782        3.44716
H         -1.08905        1.40171        4.81358
H         -0.68762        3.09229        4.54688
Na        -1.97612        0.99904        1.32448
C          4.13651        4.28809        1.94982
C          3.79503        4.64576        0.66304
C          3.80944        3.49494       -0.10809
C          4.14193        2.47377        0.67878
N          4.35069        2.90853        2.00739
C          4.41485        1.05889        0.26790
N          3.29119        0.30939       -0.35946
C          3.70925       -1.07505       -0.76357
H          3.59055        5.65461        0.33253
H          4.24345        4.95835        2.79221
H          3.63675        3.43671       -1.17361
H          4.74684        0.55063        1.19052
H          5.26852        1.12712       -0.43346
C          4.22345       -1.90205        0.44344
C          2.49171       -1.81424       -1.33403
C          4.79716       -1.05996       -1.87549
H          3.44751       -1.95080        1.23614
H          4.47444       -2.93786        0.12836
H          5.16000       -1.49676        0.87637
H          2.12891       -1.33272       -2.26174
H          2.75815       -2.86484       -1.58933
H          1.67410       -1.83585       -0.58757
H          4.43696       -0.50655       -2.76948
H          5.75691       -0.61367       -1.54843
H          5.04349       -2.09741       -2.19350

