%chk=speciation1159.chk
%nprocshared=16
%mem=32GB
#p opt=loose PM7 scf=xqc 

 speciation study

0 1
Na         4.56178        2.99662        1.16219
Mg         1.35076       -0.71142        3.53308
C          5.75641        5.69545        0.96064
C          3.73530        5.94309       -0.18368
O          4.80317        5.05697        0.12341
C          5.24162        5.99556        2.38014
C          2.67755        5.27675       -1.04406
H          6.61239        4.99532        1.06193
H          6.16833        6.61199        0.48371
H          3.21316        6.32463        0.71746
H          4.13887        6.80139       -0.76944
H          2.13745        4.50449       -0.45877
H          1.94271        6.05012       -1.36611
H          3.13457        4.82376       -1.94556
H          4.82425        5.07995        2.84654
H          6.07824        6.36853        3.00676
H          4.46731        6.78874        2.38709
H         -0.26889       -0.82318        5.72467
C          1.59812       -1.58040        6.51836
C          0.57358       -1.46022        5.38220
C          2.14394       -0.20496        6.91731
H          1.11198       -2.04699        7.40592
H          2.43528       -2.23932        6.19440
H          2.61862        0.27367        6.04023
H          1.30202        0.43839        7.26293
C          3.16995       -0.30496        8.04541
H          0.16684       -2.47470        5.16757
H          2.71341       -0.75211        8.95529
H          4.03531       -0.92508        7.72988
H          3.53928        0.71135        8.30274
C          2.85596       -3.11616        3.01805
C          3.91369       -3.68191        2.33757
C          4.47502       -2.67455        1.58441
C          3.74165       -1.52693        1.84816
N          2.75171       -1.80589        2.72148
C          4.02636       -0.17318        1.23853
N          4.31519        0.89186        2.22336
C          5.52349        0.74970        3.09163
H          4.23197       -4.71497        2.38352
H          2.19624       -3.63914        3.69826
H          5.33491       -2.76644        0.93255
H          3.12978        0.12607        0.65727
H          4.86270       -0.24851        0.51310
C          6.81141        0.60389        2.26463
C          5.62336        2.03138        3.93511
C          5.42120       -0.42921        4.09892
H          6.92604        1.45863        1.56514
H          7.69916        0.57111        2.93236
H          6.80894       -0.34213        1.68048
H          4.71507        2.16349        4.56111
H          6.50314        1.99092        4.61857
H          5.73928        2.92220        3.28755
H          4.48117       -0.37977        4.68030
H          5.49765       -1.41678        3.61023
H          6.27156       -0.40531        4.81079
Na         2.73522        1.05915        3.64350
H          0.04112        1.55776        3.09085
C         -0.67480        0.48074        1.34986
C          0.41497        0.80047        2.37162
C         -1.92186       -0.09164        2.01661
H         -0.94547        1.42487        0.82467
H         -0.27936       -0.23747        0.59821
H         -1.66274       -1.05095        2.51848
H         -2.30459        0.62098        2.77818
C         -3.02610       -0.34222        0.98986
H          1.26443        1.24838        1.81393
H         -3.32917        0.61525        0.50820
H         -2.67832       -1.04710        0.20589
H         -3.91319       -0.77890        1.49560

