%chk=speciation594.chk
%nprocshared=16
%mem=32GB
#p opt=loose PM7 scf=xqc 

 speciation study

0 1
Na        -1.68307       -3.69553       -0.20180
Mg         1.06896       -1.00662        2.57745
C          0.96441        1.79544        1.53855
C          1.87674        1.46318        3.63784
O          1.04794        0.90560        2.64072
C          0.13918        1.21221        0.40583
C          1.85071        0.58295        4.87303
H          0.42098        2.70778        1.87115
H          1.96705        2.07873        1.13760
H          2.92820        1.56377        3.28442
H          1.47773        2.45585        3.95141
H          2.45097        1.05875        5.67813
H          2.27777       -0.41392        4.64168
H          0.80479        0.46846        5.22794
H         -0.81475        0.79709        0.79001
H          0.71426        0.42629       -0.11159
H         -0.09132        2.01486       -0.33016
H         -1.52360       -0.65465        3.00652
C         -1.34078       -2.58342        3.97726
C         -0.95524       -1.59717        2.86551
C         -1.02374       -2.03506        5.37086
H         -2.43501       -2.77641        3.90668
H         -0.80874       -3.54621        3.83196
H          0.07068       -1.87472        5.46128
H         -1.54842       -1.06632        5.52102
C         -1.47745       -3.00394        6.46460
H         -1.26878       -2.03130        1.89471
H         -2.57843       -3.15249        6.42171
H         -0.97534       -3.98800        6.34898
H         -1.21911       -2.58942        7.46215
C          3.69472       -2.40377        2.57680
C          4.33513       -3.55622        2.17629
C          3.38893       -4.35053        1.56448
C          2.21266       -3.63476        1.61533
N          2.39371       -2.45015        2.23990
C          0.90767       -4.08982        1.04424
N          0.34710       -3.10814        0.10369
C          0.99661       -2.91902       -1.22167
H          5.38795       -3.79826        2.30513
H          4.16322       -1.57161        3.08406
H          3.55032       -5.31869        1.11823
H          0.20357       -4.18724        1.88197
H          0.99059       -5.09354        0.58136
C          1.21709       -4.25594       -1.95437
C          0.03866       -2.05791       -2.06273
C          2.33509       -2.16003       -1.09585
H          0.25859       -4.80954       -2.04990
H          1.62312       -4.07478       -2.97322
H          1.95168       -4.89505       -1.42172
H         -0.16337       -1.08951       -1.56367
H          0.46915       -1.85044       -3.06593
H         -0.93403       -2.57485       -2.20329
H          2.20017       -1.21319       -0.53636
H          3.11099       -2.75827       -0.58775
H          2.74069       -1.91842       -2.10111

