%chk=speciation279.chk
%nprocshared=16
%mem=32GB
#p opt=loose PM7 scf=xqc 

 speciation study

0 1
Na         1.03740       -0.10414        0.09853
Mg        -2.06082        0.26301       -5.16590
C          1.09056        0.31928        3.14414
C         -1.05794       -0.34819        2.31764
O          0.20113        0.24267        2.03012
C          1.27575       -0.97043        3.95517
C         -1.94202        0.54212        3.19742
H          2.09236        0.57465        2.74712
H          0.80241        1.16175        3.81127
H         -1.59308       -0.48739        1.35682
H         -0.95643       -1.36342        2.75147
H         -2.13309        1.51366        2.69576
H         -2.91533        0.03547        3.37473
H         -1.47411        0.72719        4.18678
H          1.56828       -1.80484        3.28557
H          2.07727       -0.81618        4.70934
H          0.35537       -1.23395        4.51719
C         -0.72659        2.52638       -3.82313
C          0.21847        2.82606       -2.86407
C          0.66403        1.62036       -2.36976
C         -0.02652        0.63719       -3.03817
N         -0.87539        1.19333       -3.92710
C          0.17306       -0.83917       -2.86625
N         -0.13164       -1.28857       -1.48879
C          0.07900       -2.74766       -1.25996
H          0.55768        3.81053       -2.57129
H         -1.26767        3.24855       -4.42141
H          1.41956        1.46894       -1.62665
H          1.22987       -1.04052       -3.12146
H         -0.49014       -1.34384       -3.59594
C          1.55715       -3.15087       -1.43640
C         -0.32399       -3.06370        0.18899
C         -0.80003       -3.61426       -2.19486
H          2.18613       -2.58057       -0.73053
H          1.69731       -4.22996       -1.21085
H          1.91732       -2.99458       -2.47323
H         -1.38961       -2.80618        0.36410
H         -0.18926       -4.14607        0.40894
H          0.30468       -2.48860        0.90026
H         -1.87645       -3.38519       -2.04716
H         -0.54558       -3.47502       -3.26440
H         -0.64318       -4.69394       -1.97945
Na        -2.46174       -1.00296       -1.16324
C          4.11293       -0.20945       -0.46066
C          3.56553        1.88558        0.43884
O          3.06613        0.63683       -0.01145
C          4.93350       -0.78405        0.69752
C          2.44292        2.86552        0.75210
H          3.66139       -1.04166       -1.02502
H          4.77013        0.29808       -1.20385
H          4.14791        1.75602        1.37587
H          4.19461        2.36611       -0.34616
H          1.78841        2.47241        1.54952
H          2.88623        3.82060        1.10638
H          1.83598        3.08091       -0.14548
H          4.26144       -1.26133        1.44011
H          5.65115       -1.53960        0.31440
H          5.52637        0.01068        1.19691
C         -3.75484        3.77432       -1.96531
C         -2.98060        3.26368       -0.94797
C         -3.39415        1.95013       -0.71544
C         -4.39160        1.67759       -1.57276
N         -4.66223        2.79545       -2.39574
C         -5.17955        0.39855       -1.73556
N         -4.79183       -0.71735       -0.83769
C         -5.57636       -1.96234       -1.06025
H         -2.19568        3.80686       -0.43719
H         -3.68338        4.77110       -2.38324
H         -2.97868        1.28531        0.02105
H         -5.02698        0.11162       -2.79149
H         -6.23504        0.68211       -1.56741
C         -5.41823       -2.49951       -2.50411
C         -5.04530       -3.03027       -0.09393
C         -7.07935       -1.74090       -0.76139
H         -4.34710       -2.67000       -2.74429
H         -5.96559       -3.46014       -2.62233
H         -5.85093       -1.81188       -3.25879
H         -5.16096       -2.69560        0.95855
H         -5.60418       -3.98336       -0.22005
H         -3.96999       -3.22868       -0.28781
H         -7.22013       -1.36036        0.27264
H         -7.54593       -1.02550       -1.46900
H         -7.64438       -2.69191       -0.86792

