%chk=speciation1085.chk
%nprocshared=16
%mem=32GB
#p opt=loose PM7 scf=xqc 

 speciation study

0 1
Na         0.69969        0.70643        0.14353
Mg         1.67460        0.51843        5.91059
C          2.57985        3.30398        1.04871
C          1.03008        2.47800        2.66081
O          1.44420        2.46298        1.30462
C          3.81866        3.05968        1.94539
C          0.56721        3.84828        3.17431
H          2.89424        3.15440       -0.00109
H          2.28282        4.37503        1.11372
H          0.14419        1.84004        2.72703
H          1.80366        2.03865        3.33027
H         -0.26717        4.22655        2.54606
H          0.20575        3.73810        4.22023
H          1.38966        4.59105        3.18745
H          4.18183        2.01307        1.83972
H          4.63462        3.75415        1.65162
H          3.60756        3.26958        3.00514
H          3.73957        1.35512        7.73038
C          5.35008        1.34499        6.29063
C          3.93117        0.83204        6.76852
C          5.45457        2.86177        6.05532
H          6.10171        1.08739        7.07484
H          5.68626        0.82442        5.37264
H          4.71779        3.16091        5.28340
H          5.23487        3.38884        7.00437
C          6.85600        3.29922        5.58516
H          4.10226       -0.23165        7.02078
H          7.64058        3.05136        6.33447
H          7.12849        2.82657        4.61667
H          6.86845        4.40513        5.43771
C          3.53338       -0.72760        3.80846
C          3.67321       -1.35913        2.59214
C          2.41508       -1.51098        2.09221
C          1.55445       -0.95245        3.01737
N          2.23873       -0.46405        4.09908
C          0.07508       -0.95874        2.84388
N         -0.30224       -0.91660        1.41172
C         -1.76375       -1.03637        1.15943
H          4.59432       -1.68549        2.12006
H          4.36161       -0.49690        4.44325
H          2.15008       -1.98233        1.14994
H         -0.34751       -0.10398        3.38283
H         -0.28355       -1.89420        3.31778
C         -2.52003        0.15497        1.75501
C         -1.97545       -1.01673       -0.34346
C         -2.35743       -2.36993        1.68758
H         -2.06955        1.11350        1.41751
H         -3.59208        0.13223        1.46551
H         -2.48642        0.10539        2.84692
H         -1.51660       -1.90649       -0.78289
H         -3.05401       -1.02686       -0.61287
H         -1.49558       -0.11868       -0.75152
H         -1.82559       -3.24027        1.24324
H         -2.31166       -2.45128        2.79037
H         -3.43219       -2.44884        1.41001
Mg         1.39171       -3.65553       -0.56658
C         -0.92460        1.43974        7.87192
C         -1.22843       -0.03811        6.14435
O         -0.27820        0.87440        6.70855
C         -0.12434        2.44381        8.67669
C         -2.40663        0.65355        5.43328
H         -1.80990        2.04476        7.56905
H         -1.26247        0.64863        8.58523
H         -0.68728       -0.68462        5.42663
H         -1.62237       -0.76023        6.89562
H         -2.04207        1.36621        4.66453
H         -3.06779       -0.11043        4.96998
H         -3.07696        1.21097        6.12170
H         -0.78740        2.81048        9.50343
H          0.14383        3.31915        8.05394
H          0.75973        1.96684        9.13235
C         -0.89004       -4.01495       -2.36416
C         -1.56642       -3.43861       -3.41330
C         -0.91358       -2.25336       -3.71524
C          0.10740       -2.11537       -2.78982
N          0.15326       -3.21199       -2.00599
C          1.11840       -0.95612       -2.69492
N          0.61520        0.36643       -2.17898
C         -0.09080        1.31053       -3.11811
H         -2.44221       -3.84480       -3.89833
H         -1.11313       -4.94674       -1.89370
H         -1.18597       -1.60094       -4.52648
H          1.65382       -0.84959       -3.66508
H          1.90670       -1.27672       -1.98633
C         -1.60664        1.01701       -3.19164
C          0.01805        2.74352       -2.55808
C          0.53171        1.34949       -4.54610
H         -2.11243        1.26821       -2.24360
H         -2.08883        1.63325       -3.98010
H         -1.85421       -0.01541       -3.40166
H          1.07274        3.08416       -2.51897
H         -0.55271        3.45056       -3.19458
H         -0.40415        2.78874       -1.52935
H          1.57005        1.74974       -4.51057
H          0.54095        0.37338       -5.06023
H         -0.05123        2.03499       -5.20238

