%chk=speciation148.chk
%nprocshared=16
%mem=32GB
#p opt=loose PM7 scf=xqc 

 speciation study

-1 1
Mg         0.92428        0.06171        0.46679
C          2.61395        1.32661       -1.44194
C          1.49122        3.01818       -0.24396
O          1.48882        1.64582       -0.64084
C          3.97027        1.49592       -0.77320
C          1.42568        4.00338       -1.43334
H          2.45719        0.28093       -1.65278
H          2.56455        1.79450       -2.45432
H          0.58424        3.20401        0.36448
H          2.36879        3.25022        0.39623
H          0.49690        3.85128       -2.02221
H          1.44057        5.05017       -1.06038
H          2.29582        3.91845       -2.11957
H          3.98793        0.95541        0.19400
H          4.76658        1.08681       -1.42966
H          4.21172        2.56659       -0.61442
H         -2.27664       -1.92312       -3.56394
C         -1.45949       -2.42247       -5.39889
C         -1.27591       -1.78544       -4.00683
C         -1.51579       -3.95730       -5.41311
H         -2.39184       -2.01881       -5.85346
H         -0.65432       -2.12096       -6.08220
H         -1.57746       -4.26820       -6.47823
H         -0.58586       -4.37369       -4.98899
C         -2.71076       -4.57012       -4.68788
H         -1.19006       -0.69262       -4.17100
H         -2.65016       -4.39746       -3.59411
H         -3.66081       -4.15591       -5.08516
H         -2.70879       -5.66813       -4.86783
C          0.44080       -5.30375       -2.38435
C          0.42113       -6.18825       -1.32316
C          0.33018       -5.42997       -0.17135
C          0.28828       -4.10933       -0.58123
N          0.34722       -4.04292       -1.92188
C          0.22052       -2.88734        0.32385
N         -0.00135       -1.60457       -0.41039
C         -1.41640       -1.14297       -0.35124
H          0.48753       -7.26967       -1.38197
H          0.54386       -5.57047       -3.42492
H          0.29973       -5.79901        0.84407
H          1.18705       -2.85625        0.85390
H         -0.55718       -3.07697        1.08991
C         -1.92245       -0.80696        1.08193
C         -1.44995        0.17450       -1.13775
C         -2.38318       -2.19637       -0.92335
H         -1.25531       -0.09611        1.59787
H         -2.93349       -0.34397        1.02907
H         -2.04355       -1.70284        1.72462
H         -1.00785        0.05990       -2.13769
H         -2.47663        0.58516       -1.22122
H         -0.83803        0.93276       -0.60668
H         -1.93111       -2.73526       -1.75749
H         -2.59030       -3.00629       -0.19404
H         -3.35948       -1.74036       -1.20524
Mg         0.36485       -2.24203       -2.39467
C          0.93726        1.31352        3.06248
C          1.73489       -0.93364        3.20294
O          1.02810        0.04033        2.43715
C          2.28272        1.92380        3.48080
C          1.00059       -1.33845        4.49729
H          0.47022        1.99976        2.33333
H          0.22874        1.28337        3.91817
H          1.84505       -1.85409        2.61162
H          2.77233       -0.61774        3.41697
H          0.02655       -1.81795        4.26370
H          1.62253       -2.06332        5.06551
H          0.82596       -0.47211        5.16719
H          2.96985        1.96580        2.61063
H          2.11911        2.94970        3.86941
H          2.75582        1.34897        4.30431
C          3.37920       -1.85113       -2.08859
C          4.50589       -1.30737       -2.69113
C          4.12281       -0.87566       -3.93377
C          2.79359       -1.22779       -4.06016
N          2.31001       -1.75728       -2.91073
C          2.04448       -1.11165       -5.32530
N          2.84684       -1.60628       -6.47065
C          3.28221       -3.03236       -6.53944
H          5.50261       -1.22544       -2.28185
H          3.33906       -2.25032       -1.09379
H          4.74583       -0.41698       -4.69875
H          1.12597       -1.67590       -5.20806
H          1.79033       -0.04855       -5.51981
C          2.07856       -3.98717       -6.58637
C          4.10002       -3.18167       -7.83142
C          4.21435       -3.46483       -5.38357
H          1.42445       -3.75786       -7.45127
H          2.42594       -5.04058       -6.66976
H          1.49646       -3.90362       -5.65019
H          4.95963       -2.47347       -7.81952
H          4.50720       -4.21183       -7.92843
H          3.48046       -2.96131       -8.72429
H          5.10372       -2.80187       -5.32451
H          3.68615       -3.51190       -4.41357
H          4.59059       -4.49485       -5.54618

