%chk=speciation74.chk
%nprocshared=16
%mem=32GB
#p opt=loose PM7 scf=xqc 

 speciation study

-1 1
Mg         1.33448        1.34724        0.37878
C          1.30586        1.66820        3.68597
C          0.13834        3.06616        2.23882
O          1.23956        2.19033        2.32796
C          0.13086        0.76387        4.09816
C          0.31414        4.31209        3.11361
H          2.26242        1.16541        3.86627
H          1.49336        2.43991        4.45356
H          0.05748        3.37571        1.18227
H         -0.82396        2.55436        2.44987
H          1.31797        4.74702        2.93186
H         -0.49005        5.03945        2.89683
H          0.23353        4.08112        4.19461
H         -0.16857        0.09106        3.26890
H          0.41633        0.14421        4.97634
H         -0.73691        1.38539        4.40426
H          4.13389        0.86697       -3.99517
C          4.65317       -1.25445       -3.98015
C          4.54857        0.09714       -3.30911
C          3.27291       -1.75949       -4.41595
H          5.31919       -1.18008       -4.87032
H          5.10011       -1.98300       -3.26450
H          2.60387       -1.82513       -3.53085
H          2.83314       -1.04659       -5.14708
C          3.37121       -3.13873       -5.06454
H          5.56621        0.41984       -2.98337
H          4.03112       -3.09997       -5.95759
H          3.78182       -3.87455       -4.34039
H          2.36140       -3.47460       -5.38068
C         -1.58235        0.71188       -0.15668
C         -2.21702       -0.49589       -0.36728
C         -1.23825       -1.47601       -0.32550
C         -0.03961       -0.81975       -0.11449
N         -0.26952        0.50126        0.01292
C          1.34275       -1.43890       -0.01706
N          2.37974       -0.36157        0.01874
C          3.50299       -0.52035        0.95840
H         -3.27565       -0.64422       -0.52817
H         -2.04995        1.68718       -0.12054
H         -1.38691       -2.54045       -0.45176
H          1.53725       -2.07311       -0.90361
H          1.35081       -2.08469        0.87722
C          4.37228       -1.75639        0.71994
C          4.35438        0.76151        0.77810
C          2.95642       -0.63432        2.35727
H          4.81423       -1.77195       -0.29652
H          5.19337       -1.77574        1.47202
H          3.77463       -2.68386        0.86476
H          3.73024        1.67672        0.87238
H          5.18264        0.80999        1.51552
H          4.80720        0.77187       -0.23919
H          2.02854       -0.07660        2.30872
H          2.59748       -1.64470        2.62307
H          3.70132       -0.31366        3.11435
Mg         3.38396       -0.06696       -1.62614
C          1.62181        1.97845       -2.47184
C          1.87255        2.87288       -3.49756
C          2.06787        4.09175       -2.90710
C          1.91623        3.89421       -1.53860
N          1.65358        2.59222       -1.26252
C          2.04521        4.99534       -0.54230
N          1.47699        6.23188       -1.10611
C          1.52602        7.43505       -0.24916
H          1.91256        2.66273       -4.55945
H          1.43339        0.92576       -2.61919
H          2.28913        5.02096       -3.41384
H          1.52356        4.69778        0.37589
H          3.12418        5.11525       -0.33004
C          2.97377        7.78157        0.16216
C          0.95092        8.60716       -1.06225
C          0.64830        7.25152        0.99577
H          3.60909        7.92242       -0.73898
H          2.99432        8.71859        0.75820
H          3.42306        6.98721        0.79249
H         -0.07307        8.36242       -1.42011
H          0.88999        9.52593       -0.43847
H          1.58457        8.82598       -1.94750
H         -0.40012        7.02016        0.70707
H          1.03822        6.43885        1.61935
H          0.65754        8.16677        1.62283

