%chk=speciation114.chk
%nprocshared=16
%mem=32GB
#p opt=loose PM7 scf=xqc 

 speciation study

-1 1
Mg         6.05007       -3.67834       -0.26144
C          7.09331       -4.79996       -2.39643
C          7.09155       -6.31890       -0.59313
O          7.25344       -4.96940       -0.99886
C          5.72515       -5.22312       -2.93569
C          8.21048       -7.23055       -1.10329
H          7.18092       -3.72583       -2.58686
H          7.93356       -5.24786       -2.96320
H          7.17446       -6.35326        0.49211
H          6.08685       -6.71966       -0.82230
H          9.19869       -6.84090       -0.77999
H          8.07477       -8.24949       -0.68706
H          8.19412       -7.31794       -2.20950
H          4.91991       -4.73041       -2.35060
H          5.63995       -4.91937       -3.99931
H          5.60136       -6.32397       -2.89824
H          5.11641       -3.76913        2.16419
C          6.79304       -4.73657        3.11033
C          5.91361       -4.46993        1.84409
C          7.80953       -5.90231        3.01993
H          7.28943       -3.80907        3.46188
H          6.07550       -5.05184        3.90140
H          8.14353       -6.20482        4.03956
H          7.29327       -6.79087        2.60251
C          9.08224       -5.57466        2.23612
H          5.40138       -5.43165        1.61926
H          8.86566       -4.99959        1.31580
H          9.77879       -4.98640        2.87225
H          9.59796       -6.52193        1.96126
C          3.52581        0.54385       -4.48373
C          3.60989       -0.73474       -5.01527
C          3.82557       -1.58244       -3.96873
C          3.88085       -0.79925       -2.84038
N          3.68499        0.53171       -3.14683
C          4.10088       -1.35632       -1.46037
N          5.47517       -1.88338       -1.24912
C          6.61043       -0.92360       -1.36816
H          3.49724       -1.01398       -6.06833
H          3.36728        1.43346       -5.06534
H          3.92359       -2.65987       -4.03559
H          3.36125       -2.17283       -1.30022
H          3.84350       -0.57224       -0.75131
C          6.30227        0.49544       -0.79962
C          7.75990       -1.51004       -0.53874
C          7.06745       -0.78955       -2.84628
H          5.52098        0.47308       -0.02836
H          7.18309        0.93280       -0.28232
H          6.02077        1.21726       -1.59851
H          8.05322       -2.51073       -0.90168
H          8.65679       -0.85686       -0.60288
H          7.45188       -1.59593        0.52461
H          7.29977       -1.76193       -3.31089
H          6.29074       -0.32274       -3.48118
H          7.96784       -0.14979       -2.93153
Mg         3.67915        2.21062       -1.85414
C          3.36664        1.88954        1.21707
C          1.29594        2.09172        0.16364
O          2.70733        2.06023       -0.04412
C          3.13973        0.53166        1.90096
C          0.52715        2.64194       -1.02155
H          4.45237        2.06207        1.09494
H          3.00985        2.63744        1.95035
H          0.92818        1.06086        0.34342
H          1.01804        2.74840        1.02651
H          0.74272        2.04198       -1.92651
H         -0.55939        2.56243       -0.78995
H          0.76947        3.71025       -1.19092
H          3.48953       -0.31209        1.29251
H          3.70144        0.50810        2.85934
H          2.06988        0.38073        2.15491
C          4.96085        4.34194       -3.83614
C          5.69135        5.52028       -3.89033
C          5.93088        5.88655       -2.59069
C          5.33488        4.91903       -1.80925
N          4.73538        3.95206       -2.55060
C          5.36711        4.94455       -0.32809
N          4.75955        6.20006        0.13952
C          4.55367        6.30360        1.59819
H          6.01943        6.07233       -4.76884
H          4.62561        3.80516       -4.70898
H          6.47833        6.76328       -2.25758
H          4.79638        4.06162       -0.00805
H          6.42420        4.87577       -0.00084
C          5.89749        6.34955        2.35285
C          3.77064        7.59541        1.87143
C          3.72573        5.12814        2.11494
H          6.50991        7.20994        2.01232
H          5.72057        6.44050        3.44583
H          6.48081        5.41801        2.19219
H          2.81246        7.59384        1.30726
H          3.53720        7.68569        2.95476
H          4.36015        8.48436        1.56403
H          2.80668        5.00054        1.49846
H          4.36162        4.22831        2.07942
H          3.43948        5.25764        3.17731

