%chk=speciation42.chk
%nprocshared=16
%mem=32GB
#p opt=loose PM7 scf=xqc 

 speciation study

-1 1
Mg         1.46416        0.38790        1.75315
C          0.89468        2.84352        1.77423
C         -0.39734        1.91884        3.50400
O          0.19658        1.71493        2.22758
C          1.93279        3.43318        2.75062
C         -1.54831        2.93024        3.41943
H          1.43628        2.47017        0.90428
H          0.18447        3.58772        1.38084
H         -0.84516        0.97461        3.86266
H          0.33774        2.20680        4.28189
H         -2.32620        2.55432        2.71975
H         -1.99971        3.08227        4.42108
H         -1.20146        3.92235        3.06299
H          2.61732        2.63603        3.11478
H          2.53385        4.21823        2.25559
H          1.44325        3.93882        3.60467
H          0.78949       -2.16003        2.42208
C         -0.87289       -1.57760        1.14053
C          0.19084       -1.25898        2.18678
C         -0.25336       -2.16716       -0.12763
H         -1.56949       -2.32852        1.57063
H         -1.44644       -0.65624        0.90310
H          0.45095       -1.43612       -0.57728
H          0.29871       -3.09407        0.13659
C         -1.33660       -2.52794       -1.14770
H         -0.33131       -0.97096        3.11616
H         -2.05451       -3.25138       -0.71075
H         -1.88492       -1.61716       -1.46943
H         -0.86832       -2.99652       -2.03990
C          4.02110       -0.72336        0.84843
C          5.21308       -0.56477        0.17813
C          5.19799        0.69701       -0.36099
C          3.99219        1.25722        0.00268
N          3.25345        0.38606        0.74788
C          3.64715        2.69099       -0.34730
N          2.46567        2.83364       -1.22930
C          2.21219        4.26465       -1.62258
H          6.02829       -1.27701        0.10105
H          3.73999       -1.60563        1.40159
H          5.99481        1.16438       -0.92788
H          3.53808        3.23812        0.59464
H          4.53307        3.10947       -0.86360
C          3.34700        4.82886       -2.51372
C          0.89769        4.30458       -2.41264
C          2.06987        5.24482       -0.42611
H          3.52046        4.19893       -3.40055
H          3.09089        5.85276       -2.86544
H          4.30469        4.92935       -1.96472
H          0.05983        3.94077       -1.77890
H          0.66110        5.34333       -2.73415
H          0.96046        3.66262       -3.31441
H          1.22080        4.99551        0.21797
H          2.99676        5.31371        0.17740
H          1.87241        6.27633       -0.79464
Mg         3.48662        2.17429       -2.80506
C          2.64699       -2.11511       -2.83320
C          3.28005       -2.85362       -3.80564
C          4.28898       -2.06637       -4.32771
C          4.26799       -0.88345       -3.70525
N          3.24933       -0.84368       -2.72891
C          5.20060        0.26148       -4.01364
N          4.50756        1.51494       -4.38082
C          3.77284        1.53984       -5.68574
H          3.01988       -3.86251       -4.10084
H          1.81088       -2.45214       -2.24242
H          4.96835       -2.35283       -5.12206
H          5.93427       -0.02184       -4.79423
H          5.79275        0.45870       -3.10340
C          2.56741        0.56815       -5.73549
C          3.20606        2.95343       -5.88448
C          4.71768        1.22893       -6.86704
H          1.88186        0.73751       -4.87798
H          1.99136        0.71348       -6.67539
H          2.87404       -0.48898       -5.76256
H          4.01800        3.71121       -5.86750
H          2.67323        3.03272       -6.85810
H          2.47058        3.18547       -5.08923
H          5.57415        1.93591       -6.87768
H          5.10757        0.19158       -6.81664
H          4.17589        1.31645       -7.83391

