%chk=speciation11.chk
%nprocshared=16
%mem=32GB
#p opt=loose PM7 scf=xqc 

 speciation study

-1 1
Mg         0.94068        0.03325        0.07332
H         -1.42423       -0.93271        0.51523
C         -1.77633        0.24604       -1.27529
C         -1.09932        0.03325        0.07332
C         -1.41638       -0.86553       -2.26362
H         -2.87744        0.25687       -1.11859
H         -1.46265        1.23043       -1.68403
H         -0.32160       -0.87434       -2.43055
H         -1.71973       -1.85292       -1.85223
C         -2.11956       -0.65249       -3.60159
H         -1.39702        0.85103        0.76322
H         -3.22202       -0.67901       -3.46494
H         -1.83036        0.32702       -4.03876
H         -1.82987       -1.45767       -4.30911
C          1.34008        0.88083        4.20360
C          1.93700        2.03692        3.74877
C          2.73021        1.69690        2.66560
C          2.61962        0.38285        2.46990
N          1.74814       -0.20269        3.41331
C          3.33151       -0.41142        1.41862
N          2.93068        0.03325        0.07332
C          3.51952       -0.74836       -1.04633
H          1.80569        3.02232        4.17459
H          0.66268        0.80669        5.04372
H          3.34415        2.37450        2.08800
H          3.04831       -1.46879        1.58136
H          4.42174       -0.28711        1.57427
C          3.14727       -2.24769       -0.96525
C          2.96174       -0.18768       -2.36314
C          5.05859       -0.59359       -1.08642
H          2.04370       -2.37342       -0.94372
H          3.54641       -2.79419       -1.84707
H          3.58517       -2.74073       -0.07408
H          3.22372        0.88615       -2.47657
H          3.37626       -0.74228       -3.23388
H          1.85920       -0.27943       -2.38723
H          5.33838        0.47612       -1.19511
H          5.54426       -0.99525       -0.17431
H          5.48318       -1.15298       -1.94779
Mg         3.59400        1.89799       -0.13368
C          5.50819        4.15257       -0.65005
C          5.59963        5.53132       -0.62255
C          4.35143        5.99974       -0.27466
C          3.55169        4.88520       -0.10506
N          4.25733        3.76273       -0.34068
C          2.11851        4.89092        0.30337
N          1.33665        5.64405       -0.68713
C         -0.12710        5.67749       -0.47342
H          6.48182        6.12315       -0.82044
H          6.31725        3.46905       -0.86889
H          4.06079        7.03483       -0.14470
H          1.78073        3.83810        0.35766
H          2.04464        5.36312        1.30515
C         -0.48907        6.38053        0.85263
C         -0.73597        6.48817       -1.63109
C         -0.73137        4.25726       -0.50756
H         -0.06691        7.40872        0.87500
H         -1.59286        6.45404        0.96451
H         -0.10683        5.82171        1.73066
H         -0.48159        6.02288       -2.60750
H         -1.84405        6.53445       -1.54319
H         -0.34343        7.52828       -1.62981
H         -0.45406        3.74512       -1.45403
H         -0.38697        3.64067        0.34697
H         -1.83941        4.30361       -0.44189

