%chk=speciation44.chk
%nprocshared=16
%mem=32GB
#p opt=loose PM7 scf=xqc 

 speciation study

-1 1
Mg         0.99444        0.28127        0.43690
C         -1.39767        2.01784        0.34984
C          0.32355        2.64267       -1.15724
O          0.01096        2.01283        0.08614
C         -2.35969        1.68158       -0.82146
C          0.05524        4.15641       -1.17311
H         -1.58596        1.28315        1.14465
H         -1.68196        3.01153        0.76162
H          1.39443        2.54959       -1.31927
H         -0.15443        2.14231       -2.02581
H          0.62469        4.65850       -0.36405
H          0.38386        4.58053       -2.14801
H         -1.02352        4.38793       -1.05964
H         -2.16042        0.69196       -1.24884
H         -3.40580        1.67359       -0.44208
H         -2.32575        2.43553       -1.63309
H         -0.76016       -0.87925       -1.15432
C          0.58336       -2.26935       -1.97253
C          0.32472       -0.89796       -1.32773
C          2.03545       -2.50373       -2.39451
H          0.26199       -3.06446       -1.27392
H         -0.05385       -2.33471       -2.89200
H          2.36235       -1.73335       -3.12712
H          2.68885       -2.45722       -1.49886
C          2.18548       -3.87594       -3.05850
H          0.55126       -0.14786       -2.11508
H          1.84784       -4.67802       -2.36867
H          1.57959       -3.92584       -3.99004
H          3.24845       -4.05846       -3.32219
C         -1.97982        2.49746        4.53028
C         -1.82397        1.87208        5.75405
C         -0.80607        0.95897        5.61960
C         -0.36236        1.00723        4.36281
N         -1.04970        1.98171        3.61290
C          0.74821        0.15756        3.82037
N          0.44432       -0.60870        2.55382
C         -0.58579       -1.70060        2.83936
H         -2.40165        2.07485        6.64722
H         -2.70372        3.26746        4.29947
H         -0.43043        0.30289        6.39869
H          1.15496       -0.50671        4.60392
H          1.54095        0.87454        3.76335
C         -2.00226       -1.18591        3.21563
C         -0.75743       -2.59506        1.60110
C         -0.11842       -2.64513        4.00393
H         -2.39098       -0.46906        2.46707
H         -2.71769       -2.03080        3.29910
H         -2.05474       -0.74004        4.22067
H          0.20106       -3.06552        1.31649
H         -1.48285       -3.41630        1.82599
H         -1.17310       -2.01152        0.76609
H          0.88543       -3.06740        3.79554
H         -0.09788       -2.13756        4.99298
H         -0.82705       -3.48833        4.14668
Mg         1.99467       -1.77028        2.32462
C          6.68136       -0.67228       -2.42849
C          6.89213        0.65574       -2.72838
C          5.73294        1.33761       -2.41519
C          4.84638        0.45817       -1.92436
N          5.38463       -0.84646       -1.91139
C          3.46162        0.81199       -1.45523
N          3.19128        0.49903       -0.02835
C          3.99428        1.30505        0.93052
H          7.80311        1.07847       -3.13260
H          7.40345       -1.46580       -2.56317
H          5.57197        2.40243       -2.52507
H          2.75785        0.25689       -2.08575
H          3.30462        1.88317       -1.66538
C          3.82428        2.83520        0.72503
C          3.44539        0.97145        2.26916
C          5.51205        0.95332        0.98405
H          2.74480        3.09990        0.70573
H          4.30018        3.40004        1.55699
H          4.30057        3.18133       -0.21067
H          3.55710       -0.11510        2.49607
H          3.89603        1.56599        3.09388
H          2.39824        1.24545        2.09574
H          5.66450       -0.13852        1.12167
H          6.07165        1.29121        0.10068
H          6.00165        1.47795        1.83456

