%chk=speciation115.chk
%nprocshared=16
%mem=32GB
#p opt=loose PM7 scf=xqc 

 speciation study

-1 1
Mg         3.44483       -1.54671        0.98019
C          5.58058       -2.43954        2.80945
C          6.29139       -1.48334        0.84965
O          5.23525       -2.21637        1.44807
C          4.54919       -3.29382        3.51912
C          6.01648       -1.26344       -0.62426
H          6.52860       -3.02594        2.85809
H          5.70517       -1.48480        3.37026
H          6.44537       -0.49803        1.34376
H          7.23851       -2.06918        0.89855
H          5.10909       -0.64283       -0.76093
H          6.88507       -0.74379       -1.08310
H          5.87608       -2.23836       -1.13444
H          4.39706       -4.24359        2.96426
H          4.90805       -3.54372        4.54020
H          3.60264       -2.72789        3.61523
H          3.13200       -4.18979        0.85122
C          1.09888       -3.67507        0.35007
C          2.37159       -3.44512        1.16120
C          0.48895       -5.06206        0.50927
H          0.31847       -2.99587        0.71772
H          1.32616       -3.49277       -0.72220
H          1.20540       -5.83578        0.16650
H          0.23888       -5.23749        1.57845
C         -0.79596       -5.14146       -0.32205
H          2.11689       -3.59914        2.22852
H         -1.52749       -4.37326        0.01517
H         -0.57057       -4.96684       -1.39667
H         -1.25963       -6.14034       -0.20944
C          3.28045        4.60730        2.06448
C          2.83664        3.90977        3.16810
C          2.97143        2.58469        2.86195
C          3.46548        2.52900        1.57382
N          3.67371        3.77125        1.08194
C          3.71845        1.26607        0.83337
N          2.59725        0.31308        0.95712
C          1.30289        0.67937        0.29255
H          2.45284        4.32829        4.08970
H          3.30330        5.67950        2.00628
H          2.69895        1.74359        3.49000
H          4.58425        0.79804        1.33955
H          4.00929        1.44996       -0.21949
C          1.49795        1.15641       -1.16037
C          0.43234       -0.55437        0.23885
C          0.51500        1.70209        1.13605
H          2.05154        0.39411       -1.75036
H          0.51029        1.30390       -1.64903
H          2.05369        2.11257       -1.20325
H          0.28103       -0.94083        1.27069
H         -0.56651       -0.33760       -0.20206
H          0.93144       -1.27667       -0.42574
H          0.41922        1.34897        2.18584
H          0.98299        2.69683        1.13387
H         -0.51542        1.82855        0.74630
Mg         4.40642        4.34645       -0.70854
C          5.33115        3.18322       -3.28198
C          6.79323        2.61747       -1.59588
O          5.70274        3.47350       -1.94255
C          4.29016        4.16414       -3.75957
C          7.39951        2.99635       -0.26029
H          6.19940        3.31342       -3.97109
H          4.91915        2.15075       -3.37618
H          6.47522        1.55411       -1.56795
H          7.62064        2.73684       -2.33311
H          6.66846        2.82167        0.55278
H          8.29814        2.36165       -0.08480
H          7.71662        4.05950       -0.27562
H          4.66315        5.20115       -3.65355
H          4.05521        3.97498       -4.82923
H          3.38342        4.01982       -3.15771
C          0.21130        3.92255       -2.37606
C         -0.32717        3.91633       -1.11037
C          0.38578        4.82368       -0.34922
C          1.31699        5.37472       -1.13123
N          1.24939        4.85873       -2.44009
C          2.25182        6.46567       -0.72081
N          3.65511        6.19001       -1.10946
C          4.60006        7.30788       -0.81952
H         -1.15454        3.29832       -0.78964
H         -0.11178        3.30445       -3.20200
H          0.20392        5.06646        0.69117
H          2.15173        6.66034        0.36412
H          1.88404        7.34651       -1.27386
C          4.83508        7.46882        0.69518
C          5.94468        6.97853       -1.48236
C          4.10548        8.65963       -1.39586
H          5.22538        6.52542        1.12862
H          5.58546        8.26591        0.89175
H          3.90381        7.76569        1.21968
H          5.82942        6.89859       -2.58253
H          6.68950        7.77767       -1.27701
H          6.34714        6.02106       -1.09413
H          3.91755        8.57301       -2.48784
H          3.17898        9.01365       -0.89606
H          4.86039        9.45699       -1.22980

