%chk=speciation147.chk
%nprocshared=16
%mem=32GB
#p opt=loose PM7 scf=xqc 

 speciation study

-1 1
Mg         0.52423        1.31603       -0.33365
C          2.08141        1.51624       -3.12272
C          0.12229        2.80044       -3.00807
O          0.83372        1.69438       -2.42438
C          2.95745        2.76050       -3.38561
C         -0.33235        2.54834       -4.47351
H          2.72237        0.86135       -2.56663
H          1.90579        0.96742       -4.07392
H         -0.78078        3.01055       -2.41022
H          0.69636        3.74526       -2.94904
H         -1.01246        1.67904       -4.57168
H         -0.87296        3.43777       -4.85869
H          0.52141        2.37051       -5.15858
H          3.16033        3.31035       -2.44749
H          3.92613        2.43796       -3.82529
H          2.50028        3.44979       -4.12415
H         -0.02584       -3.51858       -0.28350
C         -0.97293       -3.26479       -2.20530
C         -0.82819       -2.88836       -0.71575
C         -1.30167       -4.75478       -2.41242
H         -1.79292       -2.67969       -2.66563
H         -0.01939       -3.02696       -2.72445
H         -0.49428       -5.38451       -1.98131
H         -2.25895       -5.00255       -1.90438
C         -1.44478       -5.09184       -3.90024
H         -1.76262       -3.14904       -0.17829
H         -2.27451       -4.50947       -4.35545
H         -0.50365       -4.86639       -4.44612
H         -1.67107       -6.17250       -4.02403
C         -3.96366        4.43930        1.49628
C         -4.82394        3.68946        2.25992
C         -4.30967        2.39464        2.32527
C         -3.17138        2.35121        1.61838
N         -2.90651        3.63245        1.08742
C         -2.24492        1.13985        1.44076
N         -1.66572        0.88340        0.06200
C         -2.73398        0.65019       -0.97618
H         -5.73008        4.06791        2.71165
H         -4.07164        5.48250        1.23509
H         -4.75062        1.57721        2.87794
H         -2.70865        0.22645        1.87180
H         -1.44952        1.43181        2.10895
C         -3.54662        1.93082       -1.28607
C         -2.06555        0.21895       -2.26644
C         -3.72026       -0.48034       -0.59695
H         -2.87280        2.79853       -1.44245
H         -4.17131        1.80221       -2.19221
H         -4.28709        2.16330       -0.50245
H         -1.41180       -0.64536       -2.11461
H         -2.80810        0.02119       -3.07079
H         -1.44037        1.00906       -2.60044
H         -3.20309       -1.45166       -0.51011
H         -4.26040       -0.27886        0.34758
H         -4.49798       -0.58485       -1.38769
Mg        -0.34126       -0.78066       -0.15095
C          0.01266        3.76411        0.83715
C          2.33075        3.69519        0.69468
O          1.12806        2.95653        0.57572
C         -0.18935        5.00894       -0.04041
C          3.53935        2.80675        0.52734
H         -0.79335        3.10358        0.57696
H         -0.05829        4.00514        1.92073
H          2.39791        4.14141        1.71539
H          2.39848        4.48651       -0.08182
H          3.53085        2.33088       -0.46947
H          4.46145        3.41139        0.64782
H          3.54414        2.03303        1.30151
H         -0.19656        4.74466       -1.10875
H         -1.17547        5.46382        0.19683
H          0.58125        5.77976        0.14660
C          4.86039       -3.74889        0.39479
C          3.83280       -4.21464       -0.39751
C          2.99245       -3.13653       -0.66529
C          3.49338       -2.05861       -0.06273
N          4.69645       -2.37338        0.61592
C          2.90566       -0.66834       -0.09817
N          1.57329       -0.46388        0.53770
C          1.57898       -0.82975        2.01327
H          3.70667       -5.23638       -0.72845
H          5.67299       -4.34709        0.79191
H          2.11132       -3.16708       -1.28085
H          2.85041       -0.44349       -1.14030
H          3.65074        0.01812        0.35221
C          2.70032       -0.14267        2.84602
C          0.27722       -0.37538        2.61485
C          1.65383       -2.35979        2.26884
H          2.58316        0.95772        2.84223
H          2.62568       -0.44581        3.91455
H          3.72248       -0.41454        2.51804
H         -0.56964       -0.81925        2.05227
H          0.18000       -0.66890        3.68291
H          0.31961        0.72315        2.58328
H          0.87092       -2.89870        1.70596
H          2.63514       -2.80673        2.06038
H          1.51080       -2.57825        3.34944

