%chk=speciation140.chk
%nprocshared=16
%mem=32GB
#p opt=loose PM7 scf=xqc 

 speciation study

-1 1
Mg         1.21017        0.03209       -0.28428
C          0.06706       -2.49397       -1.24696
C          0.84841       -1.24758       -3.11500
O          0.74597       -1.33226       -1.69096
C          0.63110       -3.82730       -1.73634
C         -0.49968       -1.04657       -3.83930
H          0.14915       -2.50473       -0.14128
H         -0.99039       -2.45820       -1.55271
H          1.53042       -0.41950       -3.37983
H          1.37656       -2.12836       -3.52694
H         -1.00197       -0.11326       -3.52059
H         -0.32130       -0.98841       -4.93399
H         -1.19760       -1.89374       -3.67384
H          1.71765       -3.88760       -1.53072
H          0.10657       -4.65757       -1.21520
H          0.43205       -3.96739       -2.82127
H         -2.08021        0.92509        2.58866
C         -4.07877        0.76581        3.01573
C         -2.93848        1.49147        2.26549
C         -4.02846       -0.71979        2.69765
H         -3.94553        0.87967        4.11557
H         -5.04765        1.20553        2.71234
H         -4.09661       -0.72581        1.64485
H         -3.06548       -1.18209        3.01510
C         -5.19710       -1.56804        3.17452
H         -2.85978        2.51903        2.67329
H         -5.21591       -1.64222        4.27706
H         -6.14886       -1.14884        2.78767
H         -5.07982       -2.59090        2.74657
C         -0.07770        0.30180        4.67060
C          0.10438       -0.71638        3.76077
C          0.29181       -0.13763        2.51588
C          0.23584        1.18856        2.66432
N          0.02736        1.53793        4.01768
C          0.27221        2.23396        1.58632
N         -0.00232        1.71923        0.21815
C          0.42765        2.70313       -0.82137
H          0.07094       -1.77290        3.98811
H         -0.28046        0.18271        5.72603
H          0.42503       -0.66912        1.58663
H          1.23305        2.75618        1.70555
H         -0.51050        2.97921        1.82956
C          1.94993        3.01508       -0.78655
C          0.11753        2.09040       -2.18069
C         -0.35936        4.00634       -0.70529
H          2.54583        2.08332       -0.83426
H          2.23384        3.65000       -1.65312
H          2.25899        3.59586        0.10409
H         -0.96389        1.86173       -2.27701
H          0.42355        2.75797       -3.01563
H          0.69472        1.16757       -2.25795
H         -1.41422        3.71523       -0.71455
H         -0.15829        4.54921        0.23865
H         -0.12709        4.69364       -1.55003
Mg        -2.20911        1.77780        0.12660
C          3.85308       -1.26984       -0.03296
C          3.40911        0.36766        1.63899
O          3.11099       -0.10118        0.32688
C          3.77135       -2.44508        0.95913
C          4.84236        0.88282        1.80531
H          3.47963       -1.62724       -1.01031
H          4.92200       -1.00634       -0.20800
H          2.78300        1.24196        1.83034
H          3.15481       -0.37373        2.42267
H          5.05182        1.70448        1.09010
H          4.97722        1.27480        2.83972
H          5.59519        0.07908        1.66720
H          2.71533       -2.74727        1.11900
H          4.33693       -3.31474        0.55598
H          4.24347       -2.20499        1.93740
C         -2.84649       -1.89062       -0.06284
C         -4.10362       -2.42511       -0.15189
C         -4.93626       -1.41017       -0.59063
C         -4.20064       -0.31055       -0.76914
N         -2.84697       -0.55372       -0.49861
C         -4.80298        1.00897       -1.09854
N         -3.81189        2.08841       -1.30149
C         -4.48693        3.36122       -1.79467
H         -4.38019       -3.41940        0.16167
H         -1.99731       -2.41069        0.34535
H         -6.01411       -1.48357       -0.67980
H         -5.47201        1.26745       -0.24774
H         -5.40034        0.82300       -2.00443
C         -5.35549        3.99484       -0.68547
C         -3.46171        4.42439       -2.24331
C         -5.38103        3.11744       -3.05353
H         -4.73813        4.18630        0.21677
H         -5.79217        4.95975       -1.02863
H         -6.20569        3.34104       -0.40497
H         -2.75916        4.00905       -2.99689
H         -3.98055        5.29288       -2.71154
H         -2.93599        4.87524       -1.39065
H         -4.78985        2.64602       -3.86873
H         -6.28132        2.50343       -2.84972
H         -5.79433        4.07533       -3.44202

