%chk=speciation36.chk
%nprocshared=16
%mem=32GB
#p opt=loose PM7 scf=xqc 

 speciation study

-1 1
Mg         1.16895        0.13359        0.29689
C         -0.30750        2.25458       -0.84186
C         -0.32258        2.26147        1.46205
O         -0.24292        1.43720        0.31079
C         -0.13876        1.41185       -2.09285
C         -0.25696        1.42030        2.72577
H         -1.31788        2.72340       -0.90402
H          0.47702        3.04828       -0.83992
H          0.49503        3.01778        1.49215
H         -1.30864        2.77758        1.47839
H          0.73309        0.93129        2.80760
H         -0.40795        2.08011        3.61054
H         -1.05832        0.65450        2.71425
H         -0.90190        0.60847       -2.11090
H         -0.27884        2.05445       -2.98922
H          0.87740        0.96807       -2.11706
H         -0.77716       -1.54667        1.02028
C          0.50568       -2.98395        0.03208
C         -0.07824       -1.57703        0.15994
C          1.32490       -3.42413        1.24586
H         -0.32484       -3.70629       -0.13158
H          1.15218       -2.99423       -0.84861
H          2.16125       -2.71278        1.40973
H          0.68132       -3.43486        2.15056
C          1.89906       -4.82852        1.02750
H         -0.66204       -1.37483       -0.76223
H          1.08070       -5.56909        0.89245
H          2.55039       -4.85413        0.12748
H          2.50730       -5.13088        1.90477
C          3.74066        0.98754        1.25667
C          5.10980        0.82892        1.25875
C          5.38332       -0.20451        0.39741
C          4.16405       -0.63604       -0.10078
N          3.15450        0.09739        0.43096
C          4.02651       -1.78426       -1.06626
N          3.46126       -1.33910       -2.34668
C          3.41519       -2.36333       -3.42703
H          5.83071        1.39886        1.83192
H          3.19784        1.71775        1.84105
H          6.36227       -0.60324        0.16273
H          5.04386       -2.18848       -1.22102
H          3.40508       -2.57204       -0.59902
C          2.43059       -3.49899       -3.09341
C          2.90893       -1.66725       -4.70130
C          4.80598       -2.97040       -3.72705
H          1.40535       -3.09200       -2.97509
H          2.39050       -4.24285       -3.91776
H          2.73903       -4.04553       -2.18010
H          3.60147       -0.85426       -5.00542
H          2.82594       -2.39189       -5.54037
H          1.90433       -1.22382       -4.52701
H          5.53421       -2.17244       -3.98595
H          5.19628       -3.56079       -2.87328
H          4.73853       -3.67745       -4.58243

