%chk=speciation101.chk
%nprocshared=16
%mem=32GB
#p opt=loose PM7 scf=xqc 

 speciation study

-1 1
Mg         0.99607        0.40360       -0.11845
C          3.62224        1.70511       -0.69995
C          3.77331       -0.62312       -0.18650
O          2.98413        0.55920       -0.13427
C          4.26000        1.55098       -2.10198
C          5.04358       -0.55049        0.66460
H          2.87170        2.51631       -0.77703
H          4.39888        2.09597       -0.00110
H          3.16597       -1.43932        0.22214
H          4.00691       -0.91259       -1.23341
H          4.79420       -0.32694        1.72477
H          5.57856       -1.52609        0.63072
H          5.74595        0.22247        0.29068
H          3.51733        1.25361       -2.85729
H          4.67480        2.52639       -2.42775
H          5.10387        0.82900       -2.10033
H          0.45811        2.73044       -1.34513
C          0.17030        3.74610        0.52991
C          0.07015        2.46397       -0.34305
C         -0.63386        4.93202       -0.00885
H         -0.26534        3.58792        1.52446
H          1.23801        4.03462        0.64089
H         -0.25183        5.22865       -1.00662
H         -1.70451        4.64256       -0.09696
C         -0.53816        6.12319        0.95517
H         -1.00194        2.18886       -0.41814
H         -0.94280        5.85231        1.95684
H          0.51876        6.44265        1.07812
H         -1.12786        6.97896        0.56666
C         -0.15552       -4.51333       -0.61209
C          1.20633       -4.68629       -0.54399
C          1.68916       -3.74236        0.33226
C          0.66449       -3.00273        0.77063
N         -0.54897       -3.43769        0.20802
C          0.80047       -1.99962        1.87285
N          0.32474       -0.59490        1.67456
C          0.54604        0.12743        2.99831
H          1.78174       -5.44436       -1.05825
H         -0.82902       -5.11309       -1.20698
H          2.71700       -3.66457        0.66435
H          1.87438       -2.00359        2.12173
H          0.24398       -2.47492        2.69850
C          2.01447        0.08058        3.53502
C          0.23063        1.59107        2.83680
C         -0.42466       -0.37981        4.10865
H          2.71678        0.51900        2.79442
H          2.09810        0.67702        4.47135
H          2.36289       -0.92711        3.82403
H         -0.81075        1.71940        2.47641
H          0.33491        2.14350        3.79983
H          0.99215        2.00307        2.14904
H         -1.48154       -0.25709        3.78929
H         -0.26732       -1.42921        4.41508
H         -0.29403        0.21359        5.04094
Mg        -1.66526       -0.59490        1.67456
C          0.90309       -0.41390       -2.99958
C         -1.07237       -0.70837       -1.70393
O          0.34674       -0.64567       -1.70109
C          0.24392        0.66727       -3.88282
C         -1.63398       -1.88962       -2.51111
H          1.95022       -0.13841       -2.84053
H          0.96229       -1.37323       -3.56651
H         -1.39360       -0.85039       -0.65252
H         -1.52845        0.24433       -2.04511
H         -1.20604       -2.83979       -2.16931
H         -2.73523       -1.93807       -2.38509
H         -1.41449       -1.80361       -3.59252
H          0.07802        1.60345       -3.32173
H          0.90024        0.88136       -4.75825
H         -0.72393        0.30587       -4.29699
C         -4.45127        0.39822        2.11500
C         -5.77907        0.03889        1.98630
C         -5.79370       -1.22783        1.44327
C         -4.47071       -1.58672        1.27750
N         -3.65526       -0.59490        1.67456
C         -3.97545       -2.90241        0.78590
N         -3.04762       -3.51252        1.75323
C         -3.56488       -3.97868        3.06304
H         -6.64055        0.62795        2.27123
H         -4.08630        1.33112        2.52338
H         -6.66579       -1.82912        1.22172
H         -4.80627       -3.58931        0.52628
H         -3.40915       -2.71335       -0.14805
C         -4.72318       -4.98207        2.89325
C         -2.39579       -4.68271        3.76968
C         -4.00614       -2.81136        3.97264
H         -4.40098       -5.84651        2.27421
H         -5.05749       -5.35924        3.88368
H         -5.60121       -4.50608        2.40978
H         -1.54060       -3.98140        3.88648
H         -2.69838       -5.03409        4.78054
H         -2.04966       -5.55850        3.18129
H         -3.19878       -2.05222        4.04942
H         -4.93391       -2.33076        3.62224
H         -4.24180       -3.17711        4.99348

