%chk=speciation33.chk
%nprocshared=16
%mem=32GB
#p opt=loose PM7 scf=xqc 

 speciation study

-1 1
Mg         1.06109       -0.05569        0.05627
H         -1.20423        0.97686       -0.28529
C         -1.73661       -0.29704        1.37040
C         -0.97891       -0.05569        0.05627
C         -1.30664        0.68025        2.46503
H         -2.82660       -0.18940        1.18534
H         -1.58727       -1.32925        1.72755
H         -0.21070        0.60484        2.63395
H         -1.55278        1.71780        2.15083
C         -2.02666        0.36472        3.77532
H         -1.41046       -0.72610       -0.72017
H         -3.12744        0.42773        3.63875
H         -1.76366       -0.65966        4.11848
H         -1.72077        1.08860        4.55888
C          5.29939       -1.50235       -2.99373
C          5.67555       -0.33386       -3.61969
C          5.10630        0.69619       -2.91881
C          4.40823        0.10874       -1.90181
N          4.53254       -1.24159       -1.91442
C          3.58191        0.87151       -0.93095
N          3.05109       -0.05569        0.05627
C          3.66514        0.09251        1.44240
H          6.27197       -0.24090       -4.51227
H          5.54517       -2.47752       -3.35975
H          5.16847        1.75507       -3.13377
H          2.74561        1.37495       -1.45347
H          4.19710        1.67302       -0.47252
C          3.24294        1.42647        2.09736
C          3.21485       -1.03367        2.41867
C          5.21303       -0.01884        1.40847
H          2.13652        1.52446        2.08864
H          3.58010        1.46714        3.15816
H          3.68484        2.30301        1.58727
H          3.53247       -2.03397        2.05060
H          3.69828       -0.91178        3.41569
H          2.12458       -1.01860        2.62566
H          5.51769       -0.99123        0.96412
H          5.69505        0.79893        0.85278
H          5.62366        0.02216        2.44505
Mg         3.43679       -2.08409       -0.50865
C          4.59767       -4.77393        0.39628
C          5.74337       -4.89826       -0.35119
C          5.36854       -4.51356       -1.61033
C          3.98795       -4.33160       -1.55555
N          3.71330       -4.11780       -0.30621
C          2.84527       -3.76600       -2.37359
N          1.98741       -2.95219       -1.46130
C          1.04487       -3.48231       -0.36965
H          6.68880       -5.17882        0.08922
H          4.42719       -5.16770        1.40064
H          6.06229       -4.33384       -2.39930
H          2.24588       -4.51199       -2.92633
H          3.27201       -3.09071       -3.15694
C          1.45905       -4.44829        0.82769
C          0.78740       -2.26410        0.38273
C         -0.29307       -3.96916       -0.92758
H          2.28911       -4.04125        1.45516
H          0.66675       -4.50347        1.61602
H          1.65508       -5.48169        0.50543
H          0.45881       -1.66103       -0.43899
H          0.12750       -2.35401        1.26264
H          1.73328       -1.89172        0.72540
H         -0.74779       -3.18791       -1.57644
H         -0.15358       -4.90523       -1.49044
H         -1.00569       -4.14352       -0.08384

