%chk=speciation40.chk
%nprocshared=16
%mem=32GB
#p opt=loose PM7 scf=xqc 

 speciation study

-1 1
Mg         1.12354        0.50351       -0.10745
C         -1.14399        0.62538       -2.07853
C          0.77384       -0.53760       -2.80184
O          0.27731        0.49483       -1.95842
C         -1.97012       -0.67260       -1.95575
C          0.61946       -0.27912       -4.30544
H         -1.49048        1.31755       -1.28826
H         -1.39404        1.12234       -3.04295
H          1.83893       -0.51752       -2.68976
H          0.42266       -1.54793       -2.50256
H          1.07256        0.69897       -4.57255
H          1.16419       -1.07505       -4.86371
H         -0.43837       -0.30636       -4.63070
H         -1.75672       -1.18762       -1.00613
H         -3.05354       -0.43036       -1.98503
H         -1.78129       -1.37437       -2.79606
H         -0.73154       -1.30204        0.91522
C          0.84823       -1.67639        2.30717
C          0.37471       -1.30049        0.89624
C          0.30523       -0.70085        3.35295
H          0.47085       -2.69639        2.54818
H          1.95908       -1.70105        2.33687
H          0.69811        0.31173        3.14034
H         -0.80712       -0.68614        3.30397
C          0.70969       -1.10146        4.76917
H          0.68830       -2.11768        0.21386
H          0.28199       -2.09296        5.03255
H          1.81519       -1.14301        4.85947
H          0.32019       -0.34912        5.48788
C         -0.74215        2.09306        1.69673
C         -1.18106        3.21618        2.37661
C         -0.27531        4.19213        2.14181
C          0.68479        3.65126        1.31100
N          0.43842        2.30969        1.05321
C          1.77058        4.56524        0.79475
N          1.88036        4.57576       -0.66553
C          0.80173        5.17290       -1.47530
H         -2.08110        3.33461        2.97022
H         -1.27848        1.16058        1.68222
H         -0.31600        5.22149        2.49211
H          1.65714        5.60214        1.18219
H          2.73224        4.25873        1.25483
C          0.70759        6.68337       -1.20881
C          1.18026        4.94144       -2.94739
C         -0.55957        4.49387       -1.23906
H          1.68426        7.16900       -1.42105
H         -0.07235        7.14429       -1.84980
H          0.43869        6.88656       -0.15247
H          1.29739        3.85262       -3.15025
H          0.39218        5.33880       -3.62313
H          2.13976        5.44296       -3.19347
H         -0.45171        3.39349       -1.33519
H         -0.97909        4.74717       -0.25207
H         -1.31171        4.84006       -1.97670
Mg         3.75472       -0.02452        1.69407
C          6.90970       -2.69105       -1.05854
C          6.78306       -2.61733        0.31011
C          5.52970       -2.09528        0.59084
C          4.92153       -1.85036       -0.56909
N          5.73718       -2.21502       -1.65966
C          3.53984       -1.29762       -0.75851
N          3.28414        0.05885       -0.19845
C          4.09920        1.16511       -0.77568
H          7.53618       -2.91743        1.02543
H          7.77250       -3.05053       -1.60283
H          5.11511       -1.91015        1.57000
H          2.83935       -2.00873       -0.30291
H          3.41000       -1.32285       -1.84115
C          3.85001        1.36975       -2.28876
C          3.62763        2.37925       -0.06228
C          5.61429        1.07434       -0.48003
H          2.77628        1.56639       -2.49188
H          4.41510        2.25590       -2.65562
H          4.18639        0.50006       -2.88472
H          3.80381        2.29020        1.03274
H          4.12247        3.30097       -0.44492
H          2.54537        2.39174       -0.24656
H          5.79480        0.97718        0.61374
H          6.12265        0.26058       -1.01543
H          6.12408        2.00441       -0.82036

