%chk=speciation117.chk
%nprocshared=16
%mem=32GB
#p opt=loose PM7 scf=xqc 

 speciation study

-1 1
Mg         1.20284        0.47381        0.16944
C         -0.79260       -1.37247        1.17186
C         -1.43918        0.91902        1.35530
O         -0.36319       -0.02031        1.29391
C         -1.62023       -1.66998       -0.08158
C         -2.38145        0.74830        2.55480
H          0.11456       -2.00867        1.13631
H         -1.33458       -1.70166        2.08401
H         -0.99099        1.93278        1.44798
H         -2.05356        0.91744        0.43863
H         -1.82595        0.82030        3.51117
H         -3.15052        1.55168        2.52705
H         -2.93143       -0.21448        2.50977
H         -1.02693       -1.40144       -0.97054
H         -1.85679       -2.75351       -0.12843
H         -2.59041       -1.12997       -0.08449
H         -0.97869        1.33654       -1.34323
C          0.53405        1.83048       -2.74619
C          0.06072        1.70530       -1.29654
C          0.58920        0.48018       -3.46548
H         -0.13211        2.51933       -3.31449
H          1.55080        2.27093       -2.73121
H          1.09022        0.61889       -4.44724
H          1.19482       -0.19676       -2.84781
C         -0.77985       -0.15102       -3.73991
H          0.01535        2.72498       -0.85762
H         -1.35512       -0.32355       -2.81567
H         -1.38346        0.50078       -4.40424
H         -0.63571       -1.13342       -4.23970
C          7.30323        1.97738       -1.27813
C          7.45972        0.63087       -1.04498
C          6.19416        0.09430       -0.90603
C          5.29466        1.06361       -1.05474
N          5.93267        2.29714       -1.30418
C          3.80632        0.89615       -0.95235
N          3.32332        0.29109        0.32680
C          3.63700        1.13201        1.55427
H          8.40284        0.10355       -0.97058
H          8.10868        2.68690       -1.41460
H          5.96244       -0.92083       -0.68625
H          3.45270        0.24424       -1.77466
H          3.32025        1.88372       -1.11533
C          3.16420        2.61101        1.43113
C          2.89013        0.51196        2.73934
C          5.14268        1.16488        1.94611
H          2.07645        2.67261        1.21515
H          3.35569        3.16683        2.38074
H          3.72325        3.16224        0.64854
H          3.22527       -0.53151        2.90176
H          3.08213        1.08307        3.67597
H          1.79906        0.52121        2.55806
H          5.55515        0.14563        2.04453
H          5.76378        1.75187        1.24629
H          5.28394        1.68571        2.91786
Mg         3.89475       -1.82356        0.30822
C          4.27538       -3.76008        2.69535
C          6.22836       -2.57567        2.16424
O          4.90225       -2.90850        1.73534
C          2.76672       -3.81544        2.54187
C          7.18631       -3.78521        2.35251
H          4.65848       -4.79302        2.55694
H          4.47325       -3.42921        3.74694
H          6.69737       -1.92416        1.40263
H          6.18758       -1.99796        3.11148
H          7.33006       -4.35395        1.41078
H          8.18399       -3.42073        2.68623
H          6.84143       -4.48654        3.14351
H          2.29878       -2.92131        3.00097
H          2.39343       -4.71326        3.08696
H          2.47469       -3.90059        1.47714
C          0.85630       -4.89493       -4.76070
C          0.66259       -5.69332       -3.65628
C          1.12973       -4.99406       -2.55081
C          1.59763       -3.81285       -2.96293
N          1.44074       -3.67962       -4.36394
C          2.22306       -2.73656       -2.09184
N          3.43296       -3.15531       -1.33996
C          4.62322       -3.54277       -2.17162
H          0.23365       -6.68872       -3.67022
H          0.60430       -5.15897       -5.78114
H          1.12514       -5.35127       -1.52963
H          1.45084       -2.40831       -1.36742
H          2.47434       -1.87420       -2.73023
C          5.02394       -2.42190       -3.16275
C          5.77645       -3.84260       -1.20969
C          4.41983       -4.84519       -2.98992
H          5.09503       -1.44422       -2.66639
H          5.99366       -2.64950       -3.65334
H          4.27251       -2.31711       -3.97695
H          5.50461       -4.68159       -0.53433
H          6.70060       -4.11924       -1.76424
H          6.01750       -2.98183       -0.58097
H          4.08740       -5.67908       -2.33878
H          3.71732       -4.73062       -3.83224
H          5.37471       -5.14373       -3.47771

