%chk=speciation87.chk
%nprocshared=16
%mem=32GB
#p opt=loose PM7 scf=xqc 

 speciation study

-1 1
Mg         4.87471       -0.33646       -1.63432
C          4.18065       -2.13486       -3.62912
C          6.51512       -1.86034       -3.40566
O          5.24181       -1.25376       -3.30387
C          4.08193       -3.37798       -2.73638
C          7.58991       -0.85642       -3.01467
H          3.24095       -1.55749       -3.49843
H          4.22014       -2.41780       -4.70382
H          6.62603       -2.73092       -2.72754
H          6.70200       -2.15986       -4.46152
H          7.46952       -0.56726       -1.94876
H          8.59294       -1.31616       -3.14808
H          7.52372        0.05120       -3.65047
H          4.07459       -3.08568       -1.66718
H          3.14303       -3.92290       -2.96884
H          4.91948       -4.08008       -2.92527
H          2.23752        6.11405       -0.99289
C          1.78035        4.48887       -2.30739
C          2.77879        5.51170       -1.76068
C          0.52763        5.18098       -2.88963
H          2.28622        3.89149       -3.09198
H          1.45454        3.81783       -1.48410
H         -0.01001        5.73238       -2.08316
H          0.81122        5.91849       -3.67557
C         -0.43339        4.17160       -3.51381
H          3.01810        6.16841       -2.61151
H          0.05440        3.66923       -4.37593
H         -0.73547        3.40814       -2.76633
H         -1.34731        4.68790       -3.88133
C          2.76654        4.43529        1.80215
C          1.88431        3.55858        2.39083
C          1.98353        2.38140        1.69078
C          2.97972        2.55344        0.74336
N          3.41998        3.83887        0.78485
C          3.36742        1.50480       -0.28680
N          4.49816        0.60448        0.07826
C          4.34970       -0.32983        1.23985
H          1.20732        3.76456        3.20980
H          2.88942        5.47355        2.07741
H          1.38978        1.49150        1.85861
H          3.66436        2.05318       -1.20465
H          2.47582        0.91600       -0.58836
C          3.11213       -1.23986        1.08562
C          5.60939       -1.21056        1.29131
C          4.30051        0.39038        2.61515
H          3.17626       -1.83443        0.15245
H          3.03669       -1.94318        1.94477
H          2.17071       -0.65319        1.06480
H          6.51202       -0.57875        1.43701
H          5.54552       -1.92344        2.14671
H          5.72119       -1.79611        0.35875
H          5.12757        1.12156        2.71977
H          3.35754        0.88227        2.83683
H          4.36909       -0.34580        3.44439
Mg         4.49803        4.91520       -0.49246
C          7.15115        3.25696       -1.29734
C          8.41616        3.42441       -0.74374
C          8.29725        4.38487        0.23452
C          6.97413        4.75001        0.23031
N          6.27708        4.11546       -0.72777
C          6.31301        5.79128        1.08968
N          5.35518        6.57231        0.26664
C          5.99562        7.57985       -0.65067
H          9.33428        2.92277       -1.01946
H          6.90555        2.57795       -2.09990
H          9.08199        4.78219        0.87194
H          7.03424        6.40861        1.66513
H          5.70631        5.24754        1.84177
C          6.97387        6.96219       -1.69174
C          4.88949        8.27016       -1.44970
C          6.73761        8.67616        0.13802
H          6.47916        6.15199       -2.26963
H          7.31057        7.72772       -2.42005
H          7.90027        6.58073       -1.22101
H          4.12850        8.70946       -0.77640
H          5.29892        9.06937       -2.10214
H          4.42621        7.55081       -2.12681
H          6.05377        9.16335        0.86164
H          7.61596        8.27354        0.68123
H          7.12830        9.45275       -0.55780

