%chk=speciation68.chk
%nprocshared=16
%mem=32GB
#p opt=loose PM7 scf=xqc 

 speciation study

-1 1
Mg         0.90520        0.15319       -0.04921
C         -0.62942        1.60108       -1.86166
C         -1.73833       -0.44965       -1.79167
O         -0.52225        0.24374       -1.47353
C         -1.56998        2.36599       -0.94487
C         -1.67186       -1.96410       -1.63382
H          0.38351        2.04165       -1.76922
H         -0.91660        1.72565       -2.93106
H         -2.59726       -0.09836       -1.18147
H         -1.96500       -0.29993       -2.87288
H         -1.72018       -2.26282       -0.57997
H         -2.58354       -2.41238       -2.08557
H         -0.77899       -2.38704       -2.13509
H         -1.29515        2.07947        0.06778
H         -1.46768        3.46015       -1.08904
H         -2.63178        2.08709       -1.09387
H         -2.82052       -3.52261        6.96722
C         -4.06332       -4.15165        5.30277
C         -3.10670       -3.16411        5.95610
C         -4.47858       -3.66300        3.91217
H         -3.56476       -5.14107        5.22121
H         -4.96361       -4.25348        5.94847
H         -4.95928       -2.66276        3.99030
H         -3.57766       -3.57615        3.26618
C         -5.46839       -4.62847        3.26649
H         -3.60423       -2.17591        6.05850
H         -5.01765       -5.63909        3.17258
H         -6.39336       -4.69711        3.87894
H         -5.74026       -4.26256        2.25414
C          1.45175       -2.94427        4.36768
C          2.49101       -2.63246        3.50823
C          1.91302       -2.02521        2.42008
C          0.55863       -1.97903        2.67439
N          0.27282       -2.54655        3.84936
C         -0.45995       -1.35498        1.82141
N         -0.19271        0.07886        1.64302
C         -0.25007        0.95829        2.86466
H          3.53901       -2.82838        3.66676
H          1.55510       -3.42713        5.33073
H          2.42061       -1.64241        1.55283
H         -1.48432       -1.52972        2.20862
H         -0.34752       -1.85288        0.85136
C          0.89920        0.69363        3.85693
C         -0.10023        2.42617        2.43370
C         -1.59426        0.79900        3.61065
H          1.85408        0.69802        3.31767
H          0.92567        1.46823        4.65252
H          0.78951       -0.24274        4.41887
H         -1.00175        2.80155        1.92742
H          0.00461        3.09209        3.31722
H          0.79713        2.54717        1.78869
H         -2.44578        1.01803        2.93091
H         -1.72140       -0.22873        4.01133
H         -1.64441        1.49264        4.47687
Mg        -1.39597       -2.85150        4.88966
C          4.26459        1.77787        3.86016
C          4.02141        2.89787        3.09816
C          3.91216        2.48816        1.77607
C          4.06861        1.16493        1.73838
N          4.29850        0.64806        3.03502
C          4.17846        0.30126        0.52074
N          3.01623        0.25246       -0.41919
C          3.34490       -0.59210       -1.61786
H          3.95899        3.90799        3.47778
H          4.41761        1.75557        4.93246
H          3.77673        3.13505        0.91841
H          4.42226       -0.70739        0.89257
H          5.06593        0.71073        0.00412
C          3.56343       -2.07770       -1.22664
C          2.16298       -0.55042       -2.58292
C          4.58534       -0.08158       -2.40461
H          2.66158       -2.48363       -0.72124
H          3.76311       -2.69217       -2.12973
H          4.43796       -2.22927       -0.56445
H          1.94592        0.49365       -2.89172
H          2.36960       -1.15335       -3.49435
H          1.29052       -1.00814       -2.09317
H          4.44819        0.97631       -2.71452
H          5.53522       -0.17597       -1.84186
H          4.73602       -0.69094       -3.32322

