%chk=speciation109.chk
%nprocshared=16
%mem=32GB
#p opt=loose PM7 scf=xqc 

 speciation study

-1 1
Mg         0.72135        0.11015       -0.07389
C          0.24335       -1.27266       -2.61801
C         -1.44181       -1.75476       -1.03366
O         -0.07421       -1.37285       -1.23405
C         -0.65759       -0.34098       -3.42375
C         -1.80649       -3.14091       -1.62056
H          1.23062       -0.83417       -2.70094
H          0.33409       -2.27715       -3.08936
H         -1.62982       -1.85956        0.04822
H         -2.14302       -0.98025       -1.40143
H         -1.19606       -3.94375       -1.15500
H         -2.87813       -3.36119       -1.42011
H         -1.67996       -3.18587       -2.72208
H         -0.76793        0.61145       -2.88584
H         -0.19699       -0.15380       -4.41620
H         -1.66430       -0.77163       -3.57957
H         -1.15222       -0.61897        1.78892
C          0.22312        0.15749        3.21841
C         -0.05374       -0.55835        1.89844
C         -0.25561       -0.52562        4.49066
H          1.27961        0.15380        3.38722
H         -0.17015        1.19279        3.15724
H         -1.35933       -0.61073        4.49780
H          0.19670       -1.54203        4.56089
C          0.22883        0.30781        5.68835
H          0.37419       -1.58476        1.94853
H          1.34153        0.38998        5.68522
H         -0.18837        1.33665        5.63039
H         -0.07837       -0.15901        6.64335
C          0.44778        2.56975       -1.88329
C         -0.03716        3.83793       -2.13499
C         -0.75183        4.19921       -1.03727
C         -0.68481        3.12761       -0.16922
N          0.06299        2.10623       -0.67219
C         -1.32577        3.18978        1.20783
N         -2.43468        4.18345        1.22906
C         -3.11785        4.40328        2.52822
H          0.10789        4.44447       -3.02197
H          1.05992        2.01320       -2.58688
H         -1.25713        5.15145       -0.88701
H         -1.70812        2.18723        1.45469
H         -0.53349        3.48682        1.92527
C         -2.15403        5.00842        3.56814
C         -4.26376        5.41855        2.30949
C         -3.73357        3.09701        3.06935
H         -1.71852        5.95770        3.18519
H         -2.69220        5.22929        4.51593
H         -1.32984        4.31283        3.81716
H         -4.99483        5.04250        1.56252
H         -4.81190        5.60873        3.26035
H         -3.86875        6.39333        1.94718
H         -4.44943        2.67299        2.33199
H         -2.95485        2.34334        3.29642
H         -4.28453        3.29508        4.01387
Mg         3.49094       -1.72891        0.76783
C          4.74861       -3.36151        2.80182
C          4.77928       -4.22255        0.65843
O          4.06434       -3.40313        1.56269
C          4.03083       -2.46105        3.79335
C          4.01671       -4.34517       -0.65459
H          4.74553       -4.38108        3.25067
H          5.79723       -3.00238        2.68605
H          5.79528       -3.81581        0.45596
H          4.85893       -5.25648        1.06771
H          3.92932       -3.36085       -1.15318
H          4.55847       -5.03981       -1.33227
H          2.99683       -4.74390       -0.47355
H          2.96225       -2.74909        3.88114
H          4.51195       -2.55606        4.79085
H          4.11083       -1.40811        3.47519
C          6.96921       -1.24168       -1.42533
C          7.08452       -0.04737       -2.09201
C          5.81134        0.49675       -2.17789
C          4.94877       -0.32692       -1.56937
N          5.63103       -1.45786       -1.06026
C          3.44785       -0.11521       -1.44156
N          2.90277       -0.01154       -0.04752
C          3.60916        1.09642        0.74454
H          8.01021        0.36858       -2.46614
H          7.78465       -1.92116       -1.19814
H          5.56743        1.43699       -2.64896
H          3.05642       -1.02519       -1.89325
H          3.13580        0.77297       -2.02786
C          3.54940        2.47220        0.04082
C          2.93876        1.29200        2.07702
C          5.09097        0.77646        1.14687
H          2.50032        2.76862       -0.13820
H          4.00628        3.25868        0.68328
H          4.10341        2.48362       -0.91480
H          3.09429        0.35855        2.64347
H          3.41511        2.09804        2.68189
H          1.88821        1.59344        1.91290
H          5.16251       -0.19588        1.68026
H          5.83559        0.79458        0.34910
H          5.48455        1.55896        1.83459

