%chk=speciation73.chk
%nprocshared=16
%mem=32GB
#p opt=loose PM7 scf=xqc 

 speciation study

-1 1
Mg         0.99210       -0.01213        0.09895
C         -1.47623        1.10877        0.80333
C         -1.42141       -1.26719        0.56114
O         -0.94790       -0.01213        0.09895
C         -1.37188        1.06358        2.33716
C         -2.89840       -1.49582        0.22677
H         -0.91541        2.00120        0.45917
H         -2.52705        1.29226        0.49768
H         -0.85015       -2.05684        0.02988
H         -1.21712       -1.42437        1.63878
H         -3.05356       -1.45119       -0.87190
H         -3.20849       -2.49792        0.59134
H         -3.54664       -0.74236        0.71867
H         -0.32582        0.92721        2.65910
H         -1.73599        2.02408        2.75743
H         -2.00407        0.26289        2.77218
H          1.40020       -2.24493        1.02507
C          2.12544       -4.13206        1.79244
C          2.19826       -2.97760        0.78475
C          2.32066       -3.61212        3.21112
H          1.13519       -4.63430        1.72570
H          2.91987       -4.86983        1.54895
H          3.27212       -3.08208        3.20785
H          1.52177       -2.88866        3.48118
C          2.36336       -4.73148        4.25289
H          2.00798       -3.37768       -0.23207
H          1.38905       -5.26098        4.29739
H          3.16759       -5.46054        4.01418
H          2.57525       -4.29891        5.25531
C          3.16567       -2.19336       -3.84792
C          1.83925       -1.94882       -3.56483
C          1.79415       -0.99243       -2.56736
C          3.05077       -0.66273       -2.25427
N          3.97540       -1.38748       -3.03417
C          3.45527        0.36049       -1.24340
N          2.98210       -0.01213        0.09895
C          3.25314        0.98627        1.14962
H          0.99742       -2.42902       -4.04494
H          3.53824       -2.88950       -4.58521
H          0.90434       -0.56711       -2.12595
H          3.02804        1.32856       -1.56874
H          4.56578        0.42346       -1.25462
C          2.48624        2.30565        0.90945
C          2.73777        0.35540        2.44807
C          4.75619        1.30618        1.25539
H          1.40177        2.11776        0.79209
H          2.63318        2.99829        1.76657
H          2.85206        2.83680        0.00687
H          3.25266       -0.60414        2.64501
H          2.86306        1.03767        3.31495
H          1.66382        0.11054        2.34272
H          5.34554        0.37462        1.27565
H          5.10808        1.88384        0.37552
H          4.96535        1.92259        2.15670
Mg         3.99834       -1.80826        0.67101
C          5.23102       -0.27151        4.46338
C          4.82387       -1.35188        5.21429
C          5.19360       -2.48978        4.52740
C          5.77563       -2.12064        3.37807
N          5.87900       -0.72155        3.30747
C          6.29833       -3.05917        2.33418
N          5.94227       -2.68030        0.94843
C          6.63871       -3.56027       -0.06926
H          4.28995       -1.30168        6.15252
H          5.06849        0.76856        4.71028
H          5.01783       -3.51152        4.84394
H          5.94607       -4.08377        2.57363
H          7.39328       -3.00945        2.47663
C          6.16096       -5.02605        0.04637
C          6.34143       -3.07400       -1.49651
C          8.19591       -3.53261        0.07671
H          5.05216       -5.07397        0.01769
H          6.56720       -5.64357       -0.78331
H          6.51886       -5.49883        0.98536
H          6.70365       -2.03308       -1.64426
H          6.87804       -3.71608       -2.23631
H          5.26315       -3.14273       -1.71462
H          8.58339       -2.49897       -0.00547
H          8.55420       -3.97704        1.02894
H          8.68005       -4.14903       -0.71319

