%chk=speciation12.chk
%nprocshared=16
%mem=32GB
#p opt=loose PM7 scf=xqc 

 speciation study

-1 1
Mg         0.98553       -0.08496       -0.05072
H         -1.41837       -0.74721        0.76358
C         -1.61930       -0.52762       -1.39202
C         -1.05447       -0.08496       -0.05072
C         -1.20365       -1.96490       -1.71131
H         -2.72886       -0.46271       -1.34827
H         -1.24884        0.15901       -2.18370
H         -0.09458       -2.03688       -1.75755
H         -1.57338       -2.64303       -0.91116
C         -1.79448       -2.41462       -3.04435
H         -1.37894        0.95491        0.16433
H         -2.90310       -2.34714       -3.01656
H         -1.40857       -1.77979       -3.87021
H         -1.51601       -3.46959       -3.24197
C          1.88892        0.01296       -4.29439
C          1.31224        1.22970       -4.06259
C          1.77771        1.67637       -2.84283
C          2.61131        0.76165       -2.34199
N          2.71905       -0.34176       -3.21170
C          3.37097        0.92369       -1.05206
N          2.97553       -0.08496       -0.05072
C          3.46514        0.18489        1.32939
H          0.63519        1.73901       -4.73807
H          1.72008       -0.56494       -5.18544
H          1.52508        2.62507       -2.38771
H          3.14039        1.94166       -0.68964
H          4.45750        0.85946       -1.26977
C          2.90530        1.51146        1.89534
C          2.97451       -0.96109        2.22791
C          5.00805        0.21952        1.39287
H          1.79599        1.51823        1.85109
H          3.21768        1.64194        2.95432
H          3.29301        2.40197        1.36050
H          3.36703       -1.93487        1.86542
H          3.32143       -0.81461        3.27543
H          1.86469       -1.00675        2.22959
H          5.42525       -0.74630        1.06223
H          5.42951        1.03160        0.76412
H          5.35369        0.39635        2.43266
Mg         3.63886       -1.87622       -0.60883
C          2.81943       -2.82383       -5.25509
C          1.54736       -3.26204       -5.02008
C          1.54132       -3.85482       -3.75552
C          2.76614       -3.75126       -3.22839
N          3.60356       -3.10324       -4.15020
C          3.21643       -4.36463       -1.90321
N          4.30219       -3.66748       -1.16694
C          5.72390       -3.67752       -1.68484
H          0.72207       -3.16023       -5.70960
H          3.18236       -2.31311       -6.14656
H          0.69191       -4.33365       -3.29488
H          3.43589       -5.44004       -2.03825
H          2.32868       -4.33441       -1.23418
C          6.01118       -2.85639       -2.96975
C          6.60201       -3.01758       -0.61148
C          6.21633       -5.11669       -1.93019
H          5.53701       -1.84738       -2.93701
H          7.10020       -2.69498       -3.11466
H          5.78528       -3.41968       -3.89380
H          6.51922       -3.53964        0.35941
H          7.67032       -3.01309       -0.91926
H          6.29731       -1.95651       -0.49771
H          6.14458       -5.72260       -1.00814
H          5.61302       -5.59671       -2.73147
H          7.27140       -5.11045       -2.28212

