%chk=speciation111.chk
%nprocshared=16
%mem=32GB
#p opt=loose PM7 scf=xqc 

 speciation study

-1 1
Mg         4.79120        4.23024        3.22832
C          3.56452        6.10800        4.28259
C          5.81715        6.17469        5.04350
O          4.67766        5.36799        4.73627
C          3.85501        6.98582        3.05957
C          5.59028        7.10091        6.24507
H          2.81196        5.36298        3.96417
H          3.07399        6.67908        5.10518
H          6.65641        5.50321        5.31013
H          6.15738        6.76373        4.17140
H          5.36959        6.50708        7.15690
H          6.50637        7.70430        6.42650
H          4.76012        7.81390        6.06425
H          4.37716        6.38626        2.28540
H          2.90594        7.37293        2.63936
H          4.48053        7.86221        3.32618
H          6.55925        4.09280        1.33881
C          7.76717        3.50529        3.04400
C          6.67059        4.35331        2.40860
C          9.10100        3.78081        2.33682
H          7.85643        3.75590        4.12313
H          7.49540        2.43155        2.94946
H          8.99866        3.54827        1.25463
H          9.36416        4.85668        2.44601
C         10.23504        2.94013        2.90974
H          6.94207        5.42531        2.48064
H         10.39252        3.17955        3.98264
H         10.00514        1.85919        2.80111
H         11.17099        3.16218        2.35392
C          2.49997        2.49410        3.47660
C          1.58694        1.64484        2.88767
C          1.90598        1.59245        1.54469
C          3.00457        2.42636        1.36888
N          3.36527        2.97640        2.56309
C          3.75097        2.63378        0.06559
N          2.95712        3.09084       -1.10579
C          2.42775        4.47868       -1.10619
H          0.79128        1.10602        3.39245
H          2.53715        2.74131        4.53301
H          1.39867        1.01417        0.78914
H          4.60401        3.30091        0.24821
H          4.16430        1.63846       -0.20411
C          3.53487        5.48625       -0.76590
C          1.90158        4.73146       -2.52985
C          1.24919        4.69414       -0.13178
H          4.41205        5.29602       -1.39871
H          3.18404        6.53093       -0.90421
H          3.85414        5.38333        0.28786
H          1.07381        4.02654       -2.76502
H          1.51697        5.76764       -2.64268
H          2.69889        4.56338       -3.28025
H          0.41083        4.00346       -0.35089
H          1.55783        4.57452        0.92577
H          0.86941        5.73786       -0.23408
Mg         4.03848        2.89182       -2.93033
C          2.38672        0.76628       -3.58781
C          3.10494        1.48870       -5.68595
O          3.17220        1.72227       -4.27189
C          3.04990       -0.61188       -3.56132
C          3.83103        2.53495       -6.51075
H          2.29161        1.11340       -2.54385
H          1.34148        0.71766       -3.97612
H          3.58512        0.52461       -5.95407
H          2.04693        1.49961       -6.03376
H          4.91272        2.53673       -6.28132
H          3.70235        2.29543       -7.59220
H          3.37757        3.52829       -6.32808
H          4.09804       -0.51969       -3.21128
H          2.49326       -1.28040       -2.87530
H          3.04369       -1.08247       -4.56602
C          3.33076        7.30373       -4.33424
C          3.52651        6.65541       -5.53469
C          4.58418        5.77781       -5.36475
C          5.00777        5.87544       -4.10746
N          4.26969        6.84721       -3.39951
C          6.14274        5.10172       -3.50744
N          5.88403        3.64304       -3.51127
C          7.01764        2.82157       -2.99780
H          2.94538        6.80850       -6.43293
H          2.57350        8.04769       -4.13004
H          5.00570        5.12891       -6.11920
H          6.30835        5.46628       -2.47708
H          7.03647        5.34852       -4.11187
C          7.29128        3.10030       -1.50483
C          6.62740        1.34514       -3.15377
C          8.32752        3.05445       -3.79227
H          6.38298        2.91571       -0.91325
H          8.09166        2.43288       -1.11820
H          7.63054        4.14234       -1.32921
H          6.45284        1.09939       -4.22339
H          7.43184        0.67964       -2.76815
H          5.69948        1.13512       -2.58448
H          8.17362        2.86022       -4.87490
H          8.72329        4.08165       -3.66002
H          9.12624        2.37214       -3.42661

