%chk=speciation30.chk
%nprocshared=16
%mem=32GB
#p opt=loose PM7 scf=xqc 

 speciation study

-1 1
Mg         1.22102        1.47909        0.34277
H          2.79254        3.38728       -0.14150
C          1.82170        4.46719        1.35902
C          1.75253        3.47365        0.22270
C          0.46083        4.67790        2.00052
H          2.54790        4.11300        2.11931
H          2.19083        5.43062        0.93917
H         -0.26414        5.04038        1.23851
H          0.09498        3.71596        2.41997
C          0.58575        5.71104        3.11257
H          1.08308        3.86624       -0.57214
H          1.30633        5.35397        3.87972
H          0.95168        6.67483        2.69480
H         -0.40099        5.87297        3.58933
C         -1.74246        0.74264        0.47962
C         -2.36037       -0.49206        0.50888
C         -1.35252       -1.43975        0.49241
C         -0.16562       -0.73328        0.45546
N         -0.40960        0.58070        0.44144
C          1.23686       -1.29022        0.43368
N          2.24688       -0.18763        0.41887
C          3.13012       -0.08516        1.62292
H         -3.42534       -0.68258        0.53774
H         -2.23749        1.70640        0.47090
H         -1.47663       -2.51536        0.51079
H          1.34848       -1.90357       -0.48382
H          1.35312       -1.97103        1.30397
C          4.05648       -1.30068        1.80110
C          4.00172        1.16824        1.45191
C          2.31066        0.08439        2.92126
H          4.79873       -1.36900        0.99707
H          4.66853       -1.20276        2.72150
H          3.50308       -2.25981        1.86826
H          3.38920        2.06743        1.57301
H          4.80774        1.21593        2.21159
H          4.45011        1.22379        0.44390
H          1.64754        0.96727        2.84696
H          1.69793       -0.80943        3.14695
H          3.00346        0.23320        3.77743
Mg         3.12389       -0.06456       -1.43605
C          3.19749        2.74410       -2.79681
C          3.86206        3.24208       -3.89097
C          4.55060        2.18877       -4.43982
C          4.27303        1.09805       -3.64321
N          3.48351        1.43731       -2.62190
C          4.74324       -0.29804       -3.85256
N          4.20647       -1.17192       -2.78467
C          5.22363       -1.91383       -2.01340
H          3.82661        4.26510       -4.24420
H          2.55314        3.33407       -2.19125
H          5.17154        2.21659       -5.32225
H          5.84504       -0.27899       -3.90530
H          4.35191       -0.64882       -4.83011
C          6.10627       -0.91504       -1.23369
C          4.44567       -2.85056       -1.07752
C          6.13345       -2.81013       -2.87954
H          5.47895       -0.20533       -0.68609
H          6.78669       -1.43563       -0.52803
H          6.73790       -0.30151       -1.90739
H          3.92257       -3.64105       -1.65616
H          5.11702       -3.34175       -0.33978
H          3.64609       -2.29945       -0.56110
H          5.53054       -3.54981       -3.44575
H          6.74807       -2.23209       -3.59517
H          6.83937       -3.36434       -2.22049

