%chk=speciation48.chk
%nprocshared=16
%mem=32GB
#p opt=loose PM7 scf=xqc 

 speciation study

-1 1
Mg         0.82494        0.31156       -0.19489
C         -1.41862       -0.08077       -1.94362
C         -0.01561        1.73172       -2.50414
O         -0.58387        0.96192       -1.44947
C         -0.64631       -1.20165       -2.64041
C         -1.01738        2.53045       -3.34885
H         -1.98971       -0.47869       -1.09261
H         -2.24820        0.28984       -2.57420
H          0.69781        2.45329       -2.05542
H          0.53785        1.09679       -3.19396
H         -1.57550        3.25711       -2.72726
H         -0.45565        3.07734       -4.13679
H         -1.72777        1.87376       -3.89032
H          0.20659       -1.52746       -2.01097
H         -1.32512       -2.06083       -2.81775
H         -0.26857       -0.87124       -3.62900
H         -0.39128       -0.63911        2.20655
C         -0.92292       -2.18064        0.78206
C         -0.65097       -0.70331        1.13223
C         -2.07022       -2.78228        1.59406
H         -1.19732       -2.27948       -0.27846
H          0.00281       -2.76882        0.93695
H         -1.80409       -2.79033        2.68020
H         -2.99275       -2.16209        1.47230
C         -2.40318       -4.20032        1.13743
H         -1.58286       -0.10856        1.03542
H         -2.72513       -4.19445        0.07355
H         -1.52131       -4.86084        1.22988
H         -3.22671       -4.62264        1.75089
C          2.71577        0.49177       -4.44884
C          3.43067        1.66487       -4.50631
C          3.82744        1.95666       -3.21907
C          3.34949        1.01300       -2.39731
N          2.64399        0.03420       -3.11619
C          3.57764        1.06801       -0.91805
N          2.92572        0.02318       -0.07302
C          3.43438        0.14401        1.34875
H          3.63178        2.25129       -5.39585
H          2.25183        0.00318       -5.29561
H          4.40502        2.82370       -2.91749
H          3.22038        2.06562       -0.60350
H          4.67715        1.01743       -0.84221
C          3.11292        1.52623        1.97542
C          2.78335       -0.93628        2.22048
C          4.97032       -0.09930        1.46474
H          2.02308        1.73293        1.94584
H          3.44949        1.56144        3.03481
H          3.65376        2.35393        1.47181
H          3.01299       -1.95090        1.83772
H          3.15404       -0.86789        3.26906
H          1.70251       -0.79990        2.25626
H          5.24746       -1.09854        1.06709
H          5.59184        0.67042        0.96962
H          5.28768       -0.05475        2.53027
Mg         3.58905       -1.78682       -0.56699
C          1.50344       -5.18450        2.00816
C          2.45243       -5.88254        2.71085
C          3.67243       -5.63400        2.10954
C          3.48255       -4.82358        1.06391
N          2.11872       -4.47036        0.96546
C          4.61155       -4.41773        0.12194
N          4.25237       -3.59682       -1.06096
C          3.51695       -4.24601       -2.19265
H          2.26071       -6.52442        3.56226
H          0.44705       -5.19343        2.22181
H          4.61892       -6.05965        2.41047
H          5.14194       -5.33170       -0.20924
H          5.33690       -3.83869        0.72667
C          2.09671       -4.73562       -1.83025
C          3.34839       -3.18623       -3.28497
C          4.30470       -5.43312       -2.77924
H          1.47809       -3.91254       -1.41004
H          1.56805       -5.10511       -2.73885
H          2.12668       -5.60773       -1.14688
H          4.32982       -2.79310       -3.61939
H          2.80763       -3.59469       -4.16964
H          2.74233       -2.35761       -2.87978
H          5.31953       -5.11313       -3.09387
H          4.39244       -6.26160       -2.04696
H          3.77374       -5.84880       -3.66531

