%chk=speciation84.chk
%nprocshared=16
%mem=32GB
#p opt=loose PM7 scf=xqc 

 speciation study

-1 1
Mg         0.13630        1.04420       -0.06553
C          1.24568        2.61632       -2.24195
C          0.82120        4.01508       -0.39547
O          0.77179        2.69342       -0.90338
C          2.75032        2.87780       -2.36142
C          0.14746        4.09508        0.95676
H          1.08408        1.58363       -2.60280
H          0.66393        3.27715       -2.92628
H          1.87670        4.32581       -0.24482
H          0.29894        4.72985       -1.07680
H          0.64149        3.39401        1.66049
H          0.24938        5.13126        1.34872
H         -0.92928        3.84677        0.86443
H          3.30669        2.22025       -1.66351
H          3.08515        2.66670       -3.39897
H          2.99512        3.93678       -2.14148
H         -1.95640       -3.12775       -0.81464
C         -0.51979       -4.33212        0.21134
C         -0.87135       -3.10116       -0.61453
C         -1.22698       -4.30734        1.56927
H         -0.83623       -5.24042       -0.34875
H          0.58053       -4.38369        0.33963
H         -0.94514       -3.39311        2.12915
H         -2.32904       -4.29619        1.42148
C         -0.84405       -5.52956        2.39764
H         -0.36916       -3.18921       -1.60034
H         -1.15890       -6.46060        1.87968
H          0.25553       -5.55577        2.55714
H         -1.34556       -5.48244        3.38664
C         -4.78328       -1.84699        2.56068
C         -5.61622       -0.74948        2.53755
C         -4.85092        0.34237        2.16884
C         -3.59885       -0.07627        1.95763
N         -3.47810       -1.46077        2.20801
C         -2.46043        0.80475        1.50626
N         -1.79170        0.34628        0.25058
C         -2.62478        0.44995       -0.98805
H         -6.67781       -0.75542        2.75471
H         -5.08538       -2.85766        2.79984
H         -5.20823        1.35570        2.04768
H         -1.77455        0.83174        2.34229
H         -2.78750        1.85859        1.42370
C         -3.17434        1.88142       -1.19135
C         -1.73268        0.10836       -2.18494
C         -3.80982       -0.54982       -1.00930
H         -2.34105        2.61701       -1.20931
H         -3.73451        1.95444       -2.14764
H         -3.88941        2.17103       -0.39391
H         -1.29312       -0.90044       -2.07331
H         -2.31719        0.12812       -3.13234
H         -0.91966        0.84155       -2.26778
H         -3.46391       -1.58556       -0.84984
H         -4.59413       -0.32738       -0.27701
H         -4.33420       -0.51121       -1.98906
Mg        -0.38661       -1.11828        0.07047
C          4.97272       -3.19452       -0.41323
C          3.85752       -3.73186       -1.01715
C          2.87851       -2.76065       -1.02068
C          3.36606       -1.66367       -0.44243
N          4.70380       -1.87020       -0.03350
C          2.63343       -0.35840       -0.24779
N          1.42681       -0.42639        0.61895
C          1.64885       -0.73209        2.06657
H          3.77567       -4.73806       -1.41518
H          5.91275       -3.71065       -0.25653
H          1.88685       -2.85708       -1.43730
H          2.33554        0.00464       -1.24697
H          3.34122        0.39427        0.15948
C          2.73995        0.13607        2.73625
C          0.34976       -0.44538        2.79295
C          1.97855       -2.22055        2.27927
H          2.49970        1.21744        2.64316
H          2.79578       -0.10544        3.82267
H          3.74599       -0.05391        2.31428
H         -0.48108       -1.01161        2.32009
H          0.39428       -0.72865        3.86561
H          0.19538        0.64939        2.74301
H          1.21549       -2.84261        1.79206
H          2.96843       -2.50140        1.88466
H          1.99464       -2.47284        3.36101

