%chk=speciation41.chk
%nprocshared=16
%mem=32GB
#p opt=loose PM7 scf=xqc 

 speciation study

-1 1
Mg         1.25819        0.25900        1.49035
C          0.57440        2.62995        2.21369
C         -1.38014        1.29013        2.15243
O         -0.10972        1.57306        1.57316
C          0.70826        2.53810        3.73653
C         -2.39815        2.39834        1.86045
H          1.60240        2.58530        1.82380
H          0.15586        3.60517        1.91831
H         -1.78500        0.36407        1.69644
H         -1.32116        1.09388        3.24163
H         -2.55356        2.49296        0.76518
H         -3.36779        2.15444        2.34297
H         -2.06233        3.37507        2.26442
H          1.09776        1.54251        4.03470
H          1.41495        3.32116        4.08235
H         -0.26496        2.73675        4.23004
H          0.08469       -0.83569        3.60561
C          1.11102       -2.60718        2.92350
C          0.39424       -1.29166        2.64147
C          2.34729       -2.42079        3.80719
H          0.39840       -3.28145        3.44955
H          1.39373       -3.07548        1.95691
H          3.07193       -1.74746        3.30947
H          2.05841       -1.96119        4.77758
C          3.01402       -3.76882        4.07816
H         -0.51939       -1.52954        2.06020
H          2.32184       -4.43430        4.63844
H          3.29302       -4.26203        3.12230
H          3.93214       -3.62119        4.68365
C          3.83801       -0.89821        0.66562
C          5.06535       -0.69509        0.07844
C          5.08757        0.61423       -0.33120
C          3.86602        1.15847        0.02461
N          3.09531        0.23457        0.64459
C          3.52726        2.61426       -0.22386
N          2.39380        2.79453       -1.15723
C          2.08884        4.23115       -1.46652
H          5.86572       -1.41555       -0.03056
H          3.51469       -1.82875        1.09836
H          5.91489        1.10877       -0.81525
H          3.35849        3.09904        0.74737
H          4.42894        3.08277       -0.66988
C          3.20190        4.86770       -2.31057
C          0.79464        4.26524       -2.29531
C          1.88772        5.12509       -0.22042
H          3.32888        4.27453       -3.22752
H          2.93620        5.90586       -2.60852
H          4.16031        4.93530       -1.75744
H         -0.05045        3.84551       -1.70999
H          0.53616        5.30983       -2.58118
H          0.91214        3.67043       -3.22619
H          1.04202        4.77760        0.38605
H          2.80221        5.19318        0.40460
H          1.65271        6.16742       -0.53334
Mg         3.44586        2.26138       -2.76004
C          4.68469        0.46703       -4.80449
C          5.47121        0.46292       -5.93913
C          5.78350        1.77547       -6.20764
C          5.18167        2.52244       -5.21528
N          4.49792        1.72822       -4.36286
C          5.31666        4.00625       -5.07072
N          5.82450        4.36700       -3.73442
C          7.21125        4.00554       -3.35275
H          5.79678       -0.39688       -6.50573
H          4.27774       -0.40916       -4.31980
H          6.39709        2.15043       -7.01521
H          5.94495        4.44434       -5.87118
H          4.30927        4.45102       -5.19592
C          8.23119        4.65861       -4.29873
C          7.43163        4.53742       -1.92590
C          7.43827        2.48044       -3.30515
H          8.10135        5.76215       -4.30393
H          9.26704        4.42050       -3.97729
H          8.11070        4.28312       -5.33645
H          6.68686        4.09578       -1.22869
H          8.44717        4.27131       -1.55958
H          7.32635        5.64219       -1.89423
H          6.64300        1.99684       -2.70728
H          7.46914        2.02943       -4.30973
H          8.42085        2.23923       -2.85159

