%chk=speciation122.chk
%nprocshared=16
%mem=32GB
#p opt=loose PM7 scf=xqc 

 speciation study

-1 1
Mg         0.85359       -0.29794        0.28784
C         -1.11562       -1.12556        2.48080
C          0.85426       -0.10251        3.21208
O          0.24271       -0.83950        2.16221
C         -2.00411        0.09232        2.81363
C          1.04739       -0.90123        4.50756
H         -1.51628       -1.69000        1.64148
H         -1.17915       -1.86831        3.30390
H          1.84409        0.13801        2.89250
H          0.38045        0.88436        3.38615
H          1.60908       -1.83660        4.30116
H          1.62899       -0.29016        5.23092
H          0.07976       -1.14784        4.98808
H         -1.95163        0.85366        2.01115
H         -3.05586       -0.23495        2.94266
H         -1.71199        0.55441        3.78247
H         -0.66460        2.07357        0.20412
C          0.88495        2.56765       -1.22891
C          0.41330        1.87361        0.06386
C          0.53637        4.07022       -1.23451
H          1.98164        2.43682       -1.34260
H          0.39503        2.09500       -2.09812
H         -0.55952        4.19931       -1.10490
H          1.05604        4.58589       -0.39825
C          0.93753        4.73996       -2.55240
H          0.90498        2.37288        0.92069
H          2.03595        4.68315       -2.70396
H          0.42537        4.24944       -3.40824
H          0.63829        5.81071       -2.53750
C          2.40980       -3.72495       -3.71362
C          2.42121       -4.95776       -3.07986
C          1.48916       -4.89874       -2.06529
C          0.95699       -3.62361       -2.10795
N          1.50352       -2.92196       -3.10942
C         -0.04895       -3.02832       -1.16849
N         -0.21633       -1.54952       -1.38067
C         -1.65517       -1.27669       -1.79180
H          3.06217       -5.79553       -3.32465
H          3.02421       -3.42198       -4.54141
H          1.25479       -5.68266       -1.35288
H          0.20057       -3.21105       -0.10444
H         -0.94500       -3.64235       -1.35796
C         -2.76858       -1.83157       -0.84155
C         -1.86857        0.22557       -1.85997
C         -1.93253       -1.85278       -3.20488
H         -2.78466       -1.32238        0.12665
H         -3.77184       -1.61346       -1.26753
H         -2.76406       -2.92819       -0.68655
H         -1.15644        0.68013       -2.56932
H         -2.90103        0.47677       -2.18467
H         -1.74820        0.63028       -0.84478
H         -1.20258       -1.46528       -3.94070
H         -1.90000       -2.96048       -3.22599
H         -2.95102       -1.56156       -3.54755
Mg         0.80926       -1.15794       -3.18542
C          0.76897        0.07495       -5.88446
C          2.67703        0.39260       -4.48200
O          1.27441        0.16556       -4.54254
C          1.55551       -0.80289       -6.88793
C          3.06314        1.80666       -4.92254
H         -0.25825       -0.33253       -5.83309
H          0.66204        1.09439       -6.31479
H          2.97944        0.28748       -3.41715
H          3.25902       -0.37644       -5.02790
H          2.52734        2.55527       -4.30400
H          4.15739        1.94972       -4.79384
H          2.82281        1.97574       -5.99337
H          1.66349       -1.83599       -6.50453
H          1.00442       -0.83838       -7.85484
H          2.55538       -0.37528       -7.11957
C          7.05299        2.00728        1.18155
C          6.57810        2.49040       -0.01821
C          5.24947        2.10874       -0.13067
C          4.93308        1.41428        0.95668
N          6.03162        1.31574        1.84337
C          3.60326        0.80628        1.27376
N          3.09052       -0.19967        0.30011
C          3.89691       -1.45701        0.26627
H          7.15283        3.06026       -0.73469
H          8.05543        2.13375        1.56824
H          4.58518        2.32793       -0.95153
H          2.88701        1.63603        1.35464
H          3.73413        0.36534        2.27434
C          4.00232       -2.15522        1.64281
C          3.16882       -2.36693       -0.65766
C          5.30929       -1.27358       -0.34529
H          2.99726       -2.27102        2.10189
H          4.45358       -3.16582        1.53106
H          4.66040       -1.59625        2.33879
H          3.08408       -1.86102       -1.64128
H          3.67057       -3.35121       -0.77878
H          2.19109       -2.51412       -0.19729
H          5.24885       -0.75868       -1.32940
H          6.00051       -0.72614        0.31297
H          5.79432       -2.26239       -0.50312

