%chk=speciation8.chk
%nprocshared=16
%mem=32GB
#p opt=loose PM7 scf=xqc 

 speciation study

-1 1
Mg         1.11596       -0.09472       -0.21651
H         -1.16835        0.56929        1.05752
C          0.08157        2.08186        1.95970
C         -0.11515        0.66900        1.38738
C         -0.23873        3.16238        0.92350
H         -0.60451        2.21467        2.82708
H          1.12454        2.20121        2.32338
H          0.43925        3.05382        0.05740
H         -1.28631        3.04218        0.56632
C         -0.07597        4.57109        1.49298
H          0.03696       -0.05871        2.20985
H         -0.78242        4.73416        2.33616
H          0.96534        4.73007        1.84777
H         -0.29809        5.32028        0.70209
C         -0.69039       -4.77559       -4.40522
C          0.65265       -4.50242       -4.55021
C          1.00956       -3.63368       -3.52833
C         -0.08047       -3.37138       -2.80321
N         -1.20042       -4.07762       -3.29587
C         -0.13558       -2.46276       -1.59772
N          0.29543       -1.07298       -1.88466
C         -0.61967       -0.25339       -2.73367
H          1.30072       -4.90940       -5.31383
H         -1.27135       -5.42477       -5.04800
H          1.99730       -3.23225       -3.36079
H          0.54118       -2.91314       -0.86839
H         -1.13732       -2.48096       -1.12533
C         -2.06600       -0.21013       -2.19074
C         -0.06982        1.17718       -2.75741
C         -0.64662       -0.74530       -4.20181
H         -2.08873        0.17465       -1.15151
H         -2.69594        0.45161       -2.82513
H         -2.54399       -1.21114       -2.21872
H          0.96160        1.18322       -3.16666
H         -0.69997        1.83632       -3.39605
H         -0.06154        1.59679       -1.73265
H          0.38393       -0.82558       -4.61014
H         -1.15878       -1.71543       -4.31701
H         -1.21815       -0.04141       -4.84457
Mg         1.95583       -1.15212       -2.90841
C          2.49403        3.32604       -1.72225
C          3.28790        4.18891       -1.00153
C          3.83390        3.47032        0.04809
C          3.38292        2.21650       -0.02905
N          2.53371        2.05045       -1.14052
C          3.71221        1.12020        0.93716
N          3.03303       -0.12652        0.54033
C          3.32071       -1.30921        1.38863
H          3.43791        5.23681       -1.22313
H          1.91458        3.58071       -2.59863
H          4.50183        3.85872        0.80671
H          3.38372        1.44453        1.94545
H          4.81357        0.97767        0.93928
C          3.10470       -1.03401        2.89537
C          2.35047       -2.39863        0.94884
C          4.75726       -1.82710        1.16436
H          2.10811       -0.58970        3.08259
H          3.17813       -1.98006        3.47621
H          3.88136       -0.34823        3.29512
H          2.53583       -2.62106       -0.12313
H          2.48938       -3.33467        1.52937
H          1.30594       -2.04675        1.09062
H          4.93161       -2.04637        0.08908
H          5.51684       -1.09368        1.50246
H          4.92364       -2.76482        1.74037

