%chk=speciation100.chk
%nprocshared=16
%mem=32GB
#p opt=loose PM7 scf=xqc 

 speciation study

-1 1
Mg         0.24513        0.13947       -0.04036
C          0.82570        2.72384        1.10560
C         -1.03910        2.98942       -0.31087
O          0.10964        2.19291        0.00004
C          0.02549        2.72224        2.40177
C         -0.69193        4.41486       -0.82966
H          1.69046        2.07081        1.27175
H          1.27195        3.72137        0.89406
H         -1.59446        2.50319       -1.14297
H         -1.76233        3.05995        0.52553
H         -0.04269        4.35980       -1.72868
H         -1.61008        4.98359       -1.10444
H         -0.18129        5.03170       -0.06073
H         -0.46404        1.74138        2.50437
H          0.70399        2.90829        3.25756
H         -0.75733        3.50603        2.40818
H         -0.11369       -0.04448       -2.72574
C         -2.22943       -0.23826       -2.41919
C         -0.78323       -0.50135       -1.96604
C         -2.54707       -0.92548       -3.74998
H         -2.95815       -0.65282       -1.71013
H         -2.40257        0.85300       -2.50506
H         -1.92886       -0.48543       -4.56027
H         -2.32560       -2.01515       -3.68271
C         -4.03339       -0.77088       -4.06363
H         -0.64711       -1.59855       -2.01544
H         -4.63697       -1.28687       -3.28278
H         -4.31323        0.30326       -4.07905
H         -4.26691       -1.22896       -5.04549
C          0.47277       -3.43736        5.69381
C          0.67930       -4.18287        4.55280
C          0.71944       -3.29713        3.50372
C          0.47317       -2.04037        4.02489
N          0.35643       -2.12882        5.39456
C          0.42786       -0.78792        3.14200
N         -0.35522       -0.95420        1.86022
C         -1.78793       -1.39925        1.98790
H          0.83239       -5.25051        4.48872
H          0.47623       -3.83125        6.70012
H          0.89617       -3.54034        2.46352
H          1.47139       -0.56143        2.84545
H          0.07419        0.06831        3.74734
C         -2.65160       -0.39509        2.77249
C         -2.32792       -1.49528        0.58737
C         -1.99355       -2.81562        2.59063
H         -2.71156        0.57886        2.24471
H         -3.68787       -0.79255        2.87286
H         -2.25417       -0.23797        3.79389
H         -1.73608       -2.22801       -0.00819
H         -3.39529       -1.81004        0.56241
H         -2.23056       -0.47523        0.18835
H         -1.39018       -3.57413        2.04529
H         -1.81138       -2.85338        3.67897
H         -3.05088       -3.14183        2.49473
Mg         0.56047       -0.81537        6.87555
C          1.93697       -1.87669       -0.37594
C          3.19847        0.07349        0.12377
O          2.09983       -0.48227       -0.59449
C          2.85910       -2.81361       -1.16974
C          4.59288       -0.19774       -0.48463
H          1.91853       -2.12804        0.70044
H          0.93799       -2.12831       -0.75189
H          3.11302        1.16881        0.01301
H          3.17603       -0.18483        1.20124
H          4.62090        0.03786       -1.57084
H          5.34642        0.43949        0.02565
H          4.96321       -1.21836       -0.31787
H          3.87692       -2.86717       -0.76268
H          2.47590       -3.85109       -1.06703
H          2.88678       -2.55461       -2.24932
C          3.90304        2.76139        5.45716
C          3.96448        1.39456        5.31562
C          3.02984        0.82240        6.17675
C          2.40282        1.80818        6.81547
N          2.91859        3.05598        6.40626
C          1.31737        1.79882        7.86378
N          0.76451        0.49808        8.35653
C         -0.31763        0.73211        9.37808
H          4.65423        0.88126        4.65444
H          4.50795        3.49868        4.93858
H          2.84362       -0.23182        6.30036
H          0.51179        2.39673        7.40787
H          1.77270        2.35162        8.70361
C         -1.54997        1.44806        8.76953
C         -0.77776       -0.61837        9.94374
C          0.18255        1.58017       10.58693
H         -1.94555        0.88476        7.90070
H         -2.35600        1.54483        9.52977
H         -1.32372        2.48774        8.45550
H          0.06405       -1.13864       10.44740
H         -1.57969       -0.46070       10.70301
H         -1.18439       -1.26645        9.14215
H          1.06618        1.10730       11.06702
H          0.44035        2.62307       10.30951
H         -0.61605        1.68359       11.35327

