%chk=speciation127.chk
%nprocshared=16
%mem=32GB
#p opt=loose PM7 scf=xqc 

 speciation study

-1 1
Mg         5.44586        0.91190        3.22750
C          7.30535        2.90730        3.74636
C          5.88127        2.42314        5.59810
O          6.00769        2.51610        4.18083
C          8.45014        1.99179        4.20102
C          6.06121        3.75707        6.33554
H          7.28913        2.89211        2.63879
H          7.51447        3.96472        4.01576
H          4.84979        2.09547        5.81666
H          6.57032        1.67142        6.03731
H          5.31216        4.49773        5.98741
H          5.91344        3.59036        7.42191
H          7.08296        4.16786        6.20734
H          8.25398        0.94809        3.88771
H          9.39850        2.32564        3.72932
H          8.60377        2.03614        5.29950
H          6.10844       -1.57293        4.07171
C          4.81962       -0.98540        5.70299
C          5.87733       -0.65606        4.64214
C          5.33112       -2.07384        6.66163
H          4.58154       -0.07981        6.29529
H          3.89314       -1.32922        5.19599
H          5.57633       -2.99194        6.08570
H          6.25354       -1.71878        7.17324
C          4.29388       -2.42531        7.72607
H          6.81379       -0.35888        5.15267
H          4.05929       -1.53666        8.35001
H          3.36186       -2.79600        7.24983
H          4.69543       -3.22349        8.38698
C          2.79941        4.49642        2.35787
C          2.28997        3.58858        3.25665
C          2.60493        2.34331        2.77296
C          3.30899        2.55286        1.60798
N          3.43087        3.87850        1.33858
C          3.78937        1.45813        0.71102
N          4.59733        0.43035        1.39470
C          5.04539       -0.67222        0.48075
H          1.74036        3.81428        4.16252
H          2.69584        5.56485        2.45167
H          2.33714        1.39537        3.21964
H          4.36110        1.93144       -0.10524
H          2.86173        0.98934        0.31422
C          5.89769       -0.14039       -0.69637
C          5.90544       -1.65878        1.27069
C          3.83763       -1.46175       -0.10161
H          6.76379        0.44733       -0.33009
H          6.27239       -0.98199       -1.32010
H          5.30088        0.48287       -1.38321
H          5.30463       -2.13320        2.07147
H          6.27523       -2.47073        0.60420
H          6.78565       -1.14204        1.70720
H          3.20540       -1.86823        0.71473
H          3.20451       -0.83887       -0.76656
H          4.19177       -2.30981       -0.72572
Mg         4.32253        4.98821       -0.16224
C          2.78840        3.31236       -2.11404
C          3.76395        5.06032       -3.37077
O          3.49718        4.55100       -2.04897
C          3.45488        2.21336       -2.97004
C          2.49061        5.49181       -4.15542
H          2.67703        2.94172       -1.09099
H          1.73335        3.45406       -2.42952
H          4.45013        5.92393       -3.33760
H          4.34895        4.33910       -3.96719
H          2.07487        6.44952       -3.78165
H          2.74294        5.62940       -5.22905
H          1.67468        4.74208       -4.13765
H          4.51249        2.09109       -2.67137
H          2.91350        1.25156       -2.85550
H          3.41547        2.44546       -4.05658
C          7.50682        4.47290        0.05292
C          8.40491        5.20899        0.81370
C          7.69249        6.17434        1.47053
C          6.39480        5.98455        1.08543
N          6.25963        4.97418        0.19886
C          5.21501        6.81580        1.51572
N          4.24289        6.94720        0.40483
C          4.61213        7.96451       -0.62074
H          9.48881        5.06622        0.88031
H          7.76320        3.63564       -0.57891
H          8.07631        6.93781        2.13945
H          5.50661        7.77571        1.99162
H          4.74262        6.24933        2.33115
C          5.93696        7.62963       -1.35075
C          3.46033        7.99013       -1.62270
C          4.72104        9.39100       -0.03408
H          5.93420        6.60264       -1.75988
H          6.12194        8.33656       -2.18546
H          6.81118        7.74755       -0.67267
H          2.53659        8.39029       -1.15895
H          3.71180        8.58629       -2.52617
H          3.20893        6.97065       -1.90019
H          3.77692        9.67563        0.47731
H          5.55834        9.49283        0.68320
H          4.91225       10.12372       -0.84915

