%chk=speciation131.chk
%nprocshared=16
%mem=32GB
#p opt=loose PM7 scf=xqc 

 speciation study

-1 1
Mg         1.20126       -0.46585        0.26680
C          0.15444        0.31833        3.29437
C          1.70192        1.70344        2.15324
O          0.98043        0.46974        2.11154
C         -0.92089        1.39089        3.51504
C          2.73091        1.83206        3.29836
H         -0.35600       -0.63503        3.28557
H          0.78305        0.22222        4.19824
H          2.25615        1.81756        1.20749
H          1.01743        2.55940        2.15570
H          3.56094        1.10549        3.17939
H          3.15537        2.85883        3.28275
H          2.28867        1.71472        4.30818
H         -1.64304        1.39532        2.68319
H         -1.48339        1.16351        4.44407
H         -0.49056        2.39946        3.66739
H         -4.98246        1.78508        3.42792
C         -6.11948        0.17593        2.53828
C         -5.28705        1.44529        2.41567
C         -6.64150       -0.29626        1.17931
H         -5.51788       -0.62362        3.02187
H         -6.99115        0.39867        3.19114
H         -7.28474       -1.18805        1.33905
H         -7.26369        0.50241        0.71923
C         -5.50249       -0.66708        0.23383
H         -5.90704        2.24948        1.96487
H         -4.87028        0.22006        0.03128
H         -4.87977       -1.46720        0.68649
H         -5.92141       -1.02786       -0.72543
C          1.10494        0.59085       -2.53594
C          0.33483        1.07571       -3.57190
C         -0.95217        1.13281       -3.10869
C         -0.90367        0.70852       -1.78654
N          0.35748        0.37273       -1.42601
C         -2.09063        0.68255       -0.89498
N         -1.89225        1.58322        0.24836
C         -1.80057        3.06348       -0.07634
H          0.67616        1.35430       -4.55877
H          2.16027        0.40393       -2.61158
H         -1.82188        1.47691       -3.65398
H         -3.01336        0.95188       -1.44631
H         -2.24670       -0.34934       -0.53659
C         -3.03540        3.56144       -0.86320
C         -1.74986        3.86272        1.23580
C         -0.52556        3.48085       -0.85953
H         -3.97073        3.34781       -0.30382
H         -2.97510        4.66185       -1.03550
H         -3.09914        3.09981       -1.87147
H         -0.82711        3.64271        1.79687
H         -1.72936        4.95301        1.02948
H         -2.63232        3.65615        1.87576
H          0.40210        3.08760       -0.38424
H         -0.54228        3.21379       -1.92315
H         -0.43056        4.59730       -0.90221
Mg        -3.56859        1.51511        1.31857
C          1.39243       -3.04508       -0.97980
C         -0.56271       -2.86236        0.29095
O          0.75788       -2.37674        0.11783
C          0.65238       -3.05442       -2.33479
C         -1.19692       -2.21897        1.48760
H          2.36122       -2.54864       -1.16855
H          1.62868       -4.08899       -0.68277
H         -1.21749       -2.64856       -0.57855
H         -0.53199       -3.95649        0.50740
H         -1.26229       -1.12403        1.32127
H         -2.21861       -2.61725        1.65181
H         -0.57125       -2.47126        2.36338
H          0.45549       -2.02954       -2.69600
H          1.29116       -3.56925       -3.08771
H         -0.29818       -3.62489       -2.29645
C          3.80296        0.67817       -0.57191
C          5.16667        0.51916       -0.50284
C          5.39370       -0.64582        0.20250
C          4.13991       -1.14680        0.52898
N          3.17059       -0.35272        0.02293
C          3.87420       -2.36499        1.36455
N          5.08563       -2.74204        2.10489
C          4.96652       -3.90142        3.01486
H          5.91621        1.18639       -0.90079
H          3.30184        1.52029       -1.02329
H          6.35161       -1.05703        0.46166
H          3.07026       -2.09195        2.07518
H          3.53274       -3.18918        0.70893
C          4.79089       -5.20500        2.21528
C          6.28192       -3.98258        3.80980
C          3.80709       -3.73945        4.02445
H          5.62402       -5.32904        1.49124
H          4.78305       -6.08417        2.89490
H          3.83461       -5.21227        1.65370
H          6.44721       -3.04317        4.38269
H          6.26333       -4.83220        4.52564
H          7.14594       -4.12373        3.12194
H          3.92073       -2.79876        4.60495
H          2.81877       -3.73454        3.51903
H          3.79319       -4.59236        4.73907

