%chk=speciation34.chk
%nprocshared=16
%mem=32GB
#p opt=loose PM7 scf=xqc 

 speciation study

-1 1
Mg         2.09036        0.28351        0.86088
H          1.57815       -0.36786        3.41835
C         -0.49090       -0.34194        2.89428
C          0.92693        0.22120        2.73318
C         -0.52794       -1.86430        2.68270
H         -0.84138       -0.14468        3.93343
H         -1.17245        0.18253        2.20098
H         -0.12513       -2.12814        1.69162
H          0.10350       -2.36202        3.45196
C         -1.94956       -2.40934        2.78339
H          0.93891        1.26604        3.10780
H         -2.38599       -2.18248        3.77850
H         -2.59094       -1.96279        1.99498
H         -1.93824       -3.51361        2.64587
C          4.95463        1.07877        2.14855
C          5.49630        2.36269        2.17310
C          4.57574        3.19895        1.59957
C          3.51730        2.39150        1.26463
N          3.74469        1.09320        1.54124
C          2.25943        2.81553        0.58054
N          1.93212        1.86946       -0.49390
C          2.81335        1.84589       -1.70346
H          6.46464        2.66697        2.55741
H          5.44282        0.19562        2.52654
H          4.65422        4.26912        1.43687
H          2.28558        3.86938        0.24096
H          1.43865        2.74202        1.32307
C          4.28174        1.45909       -1.42111
C          2.24260        0.78909       -2.65362
C          2.80109        3.20156       -2.42530
H          4.33282        0.50522       -0.88079
H          4.84755        1.31780       -2.36539
H          4.83352        2.23925       -0.86498
H          1.18929        1.01518       -2.92020
H          2.84656        0.70602       -3.58224
H          2.26139       -0.18715       -2.15585
H          1.76714        3.47702       -2.71696
H          3.22345        3.99967       -1.78235
H          3.43065        3.15141       -3.34054
Mg         1.20647        0.24757       -0.32218
C         -1.81230        0.61795       -0.35180
C         -2.74525       -0.36908       -0.61921
C         -2.04415       -1.53553       -0.86136
C         -0.70727       -1.20472       -0.72951
N         -0.57650        0.07553       -0.43238
C          0.53022       -2.04052       -0.93864
N          1.69864       -1.63200       -0.06829
C          2.86781       -2.56774       -0.18949
H         -3.82100       -0.22888       -0.63947
H         -2.00598        1.65698       -0.12590
H         -2.45774       -2.49638       -1.11988
H          0.24804       -3.10296       -0.88470
H          0.79989       -1.84541       -1.99521
C          3.40725       -2.68533       -1.63970
C          4.00551       -2.10434        0.72873
C          2.47676       -3.99004        0.29470
H          3.78977       -1.72124       -2.02191
H          4.25676       -3.40172       -1.67810
H          2.63709       -3.07807       -2.33694
H          3.65121       -2.01359        1.77645
H          4.84853       -2.83106        0.70117
H          4.41528       -1.14129        0.40980
H          2.11029       -3.95753        1.34283
H          1.70776       -4.47722       -0.33357
H          3.35452       -4.67148        0.25167

