%chk=speciation29.chk
%nprocshared=16
%mem=32GB
#p opt=loose PM7 scf=xqc 

 speciation study

-1 1
Mg         0.89371       -0.69009       -0.44064
H         -0.30800       -2.22430       -2.55688
C         -0.24269       -3.96455       -1.28319
C          0.40230       -2.60973       -1.80111
C         -0.28034       -5.08735       -2.35379
H          0.27117       -4.41281       -0.42400
H         -1.27137       -3.77483       -0.91597
H         -0.92276       -4.77649       -3.20213
H          0.74716       -5.28110       -2.73433
C         -0.80445       -6.42610       -1.79425
H          1.34494       -2.86419       -2.32385
H         -0.14159       -6.80680       -0.98540
H         -1.83364       -6.32088       -1.39252
H         -0.82263       -7.19817       -2.59662
C         -1.95833       -1.10289        0.70745
C         -2.96086       -0.17298        0.87932
C         -2.44024        1.05219        0.49575
C         -1.15469        0.79930        0.06917
N         -0.85605       -0.50793        0.21472
C         -0.19242        1.80839       -0.53213
N          1.17233        1.50769       -0.09713
C          2.13937        2.66039       -0.08628
H         -3.96047       -0.35459        1.23239
H         -2.03594       -2.16883        0.86331
H         -2.95094        2.01174        0.48291
H         -0.54447        2.82573       -0.31441
H         -0.21108        1.66669       -1.63377
C          1.63462        3.86923        0.74946
C          3.44278        2.23785        0.61614
C          2.46330        3.10858       -1.51925
H          1.41524        3.56256        1.79658
H          2.42071        4.65918        0.79836
H          0.74675        4.36817        0.32345
H          3.92763        1.45015        0.06107
H          4.17589        3.07576        0.66449
H          3.25907        1.88827        1.65649
H          2.86796        2.25575       -2.10132
H          1.54956        3.49095       -2.01604
H          3.22270        3.92231       -1.50784
Mg         1.81853        0.27581        1.09409
C          6.74318        0.07666       -0.40756
C          6.54286        0.24343       -1.75844
C          5.25884       -0.17949       -2.03528
C          4.69745       -0.59831       -0.89466
N          5.58075       -0.43981        0.18132
C          3.27156       -1.08320       -0.83328
N          2.60801       -1.25891        0.48602
C          2.90524       -2.39110        1.37314
H          7.26330        0.63602       -2.46156
H          7.65138        0.30528        0.13069
H          4.77353       -0.15150       -3.00645
H          3.14203       -1.96867       -1.47676
H          2.69313       -0.27452       -1.34049
C          4.23839       -2.19573        2.10546
C          1.78369       -2.44421        2.42586
C          2.98910       -3.70382        0.59961
H          4.28836       -1.18940        2.57636
H          4.37107       -2.97050        2.88764
H          5.08674       -2.34340        1.41320
H          0.79366       -2.60088        1.94848
H          1.96282       -3.26722        3.15016
H          1.74603       -1.48730        2.99433
H          2.08601       -3.81750        0.03267
H          3.81744       -3.69234       -0.13756
H          3.11939       -4.57032        1.27872

