%chk=speciation112.chk
%nprocshared=16
%mem=32GB
#p opt=loose PM7 scf=xqc 

 speciation study

-1 1
Mg         0.83287        0.09405       -0.16188
C          0.40735       -0.00036       -3.10537
C          0.48525        2.26847       -2.41474
O          0.33050        0.90140       -1.99820
C          1.61416        0.16578       -4.04724
C         -0.64298        2.75099       -3.37261
H          0.46406       -1.02367       -2.71175
H         -0.54266        0.02800       -3.68233
H          0.47176        2.92396       -1.52547
H          1.47685        2.45874       -2.86889
H         -1.64950        2.65903       -2.92242
H         -0.49134        3.81782       -3.64138
H         -0.66656        2.18212       -4.32447
H          2.56285        0.06916       -3.48160
H          1.57546       -0.62245       -4.82876
H          1.59606        1.13385       -4.59058
H          0.76307       -2.50305       -1.07081
C         -1.35350       -2.33996       -0.69602
C          0.09846       -2.02681       -0.31738
C         -1.60111       -3.85849       -0.62867
H         -2.06038       -1.84672       -0.00398
H         -1.58067       -1.94916       -1.70102
H         -1.01846       -4.35621       -1.43766
H         -1.27332       -4.27941        0.34589
C         -3.08501       -4.15924       -0.77545
H          0.24296       -2.57798        0.62049
H         -3.62698       -3.75456        0.10941
H         -3.48440       -3.68942       -1.69554
H         -3.24607       -5.25639       -0.81326
C         -2.89559        4.42041        0.42368
C         -2.84409        3.47811       -0.57431
C         -1.75905        2.67100       -0.28199
C         -1.19618        3.16673        0.87022
N         -1.90298        4.22693        1.31540
C         -0.06150        2.49406        1.59345
N         -0.27870        1.03439        1.63957
C         -1.52472        0.61813        2.44037
H         -3.52338        3.32954       -1.39735
H         -3.65808        5.17801        0.51105
H         -1.46798        1.79201       -0.80332
H          0.06888        2.93512        2.60832
H          0.88442        2.68092        1.04976
C         -2.89579        0.91988        1.75494
C         -1.46950       -0.88902        2.68234
C         -1.61269        1.26486        3.85513
H         -2.95855        0.51788        0.72563
H         -3.74085        0.48852        2.33504
H         -3.15883        1.99430        1.78115
H         -0.69754       -1.16553        3.42303
H         -2.45434       -1.29249        3.01668
H         -1.20056       -1.37615        1.76611
H         -0.72666        1.01176        4.47273
H         -1.72990        2.36744        3.81847
H         -2.51240        0.88395        4.39709
Mg        -1.62533        5.25778        2.95095
C         -1.57732        5.29997        5.64317
C         -1.96782        7.39430        4.65592
O         -1.29648        6.16333        4.54510
C         -3.04974        4.86304        5.75315
C         -1.60789        8.26834        3.46214
H         -0.96964        4.38914        5.51007
H         -1.23220        5.75250        6.59718
H         -3.07452        7.27782        4.65344
H         -1.63704        7.92436        5.57363
H         -1.97687        7.79571        2.52569
H         -2.09015        9.26303        3.57345
H         -0.51146        8.39936        3.40266
H         -3.39775        4.41342        4.80537
H         -3.14035        4.10242        6.56768
H         -3.70731        5.70889        6.03816
C          7.47369        1.68009       -0.31634
C          7.35231        0.80195       -1.37648
C          6.00388        0.53844       -1.54846
C          5.30823        1.22629       -0.62762
N          6.19389        1.98934        0.17011
C          3.77283        1.25081       -0.42599
N          3.09748       -0.02936       -0.04340
C          3.59216       -0.68356        1.21906
H          8.19400        0.40457       -1.94591
H          8.40516        2.07610        0.07632
H          5.59418       -0.11485       -2.30732
H          3.34975        1.60605       -1.37504
H          3.55561        2.02453        0.33713
C          3.13244        0.15226        2.42507
C          2.95987       -2.06566        1.35096
C          5.12172       -0.98408        1.28083
H          2.02253        0.16775        2.45209
H          3.49487       -0.28439        3.37700
H          3.47952        1.20036        2.36539
H          3.21122       -2.72430        0.48971
H          3.27292       -2.57338        2.29163
H          1.89932       -1.91468        1.45527
H          5.44552       -1.61227        0.41856
H          5.77050       -0.10466        1.37102
H          5.36243       -1.56511        2.20033

