%chk=speciation116.chk
%nprocshared=16
%mem=32GB
#p opt=loose PM7 scf=xqc 

 speciation study

-1 1
Mg         1.11742       -0.55626        0.41052
C         -0.07853       -1.93462       -1.78979
C         -0.94540        0.23630       -1.38345
O         -0.40027       -0.95189       -0.80914
C          0.95687       -1.46359       -2.79848
C         -2.23032       -0.00045       -2.20397
H          0.29021       -2.83043       -1.27196
H         -0.97591       -2.32916       -2.31318
H         -1.22990        0.90566       -0.55218
H         -0.19141        0.78154       -1.98977
H         -3.00056       -0.50002       -1.57966
H         -2.63014        0.97122       -2.56059
H         -2.04523       -0.61250       -3.11167
H          1.81246       -1.00997       -2.25825
H          1.30600       -2.31317       -3.42005
H          0.52127       -0.70529       -3.48304
H         -1.26636       -0.72326        1.75403
C         -0.51818        0.86342        3.00259
C         -0.28102       -0.40985        2.15980
C         -1.00014        2.03623        2.15448
H         -1.25989        0.65517        3.80844
H          0.39960        1.17551        3.51115
H         -0.29059        2.19223        1.31538
H         -2.00969        1.80820        1.74975
C         -1.04918        3.32749        2.97481
H          0.04924       -1.21623        2.85130
H         -1.74019        3.22835        3.83871
H         -0.03355        3.57803        3.35418
H         -1.39357        4.16368        2.33144
C          2.91196        0.37093        4.73936
C          4.28118        0.33137        4.84080
C          4.79950        0.36645        3.55075
C          3.77956        0.41924        2.68297
N          2.56617        0.41059        3.37616
C          3.88983        0.53272        1.17504
N          3.24446       -0.52156        0.34159
C          3.78583       -1.91464        0.56097
H          4.83170        0.29658        5.77043
H          2.20915        0.38021        5.56483
H          5.84713        0.34720        3.29264
H          4.95505        0.61521        0.89360
H          3.41925        1.48070        0.91892
C          3.52043       -2.46120        1.98828
C          3.05091       -2.86430       -0.38455
C          5.28993       -2.02776        0.23970
H          2.43533       -2.40981        2.25265
H          3.80545       -3.54490        2.02480
H          4.14195       -2.00895        2.77245
H          3.17908       -2.56451       -1.44097
H          3.40107       -3.90084       -0.28624
H          1.98737       -2.84476       -0.10608
H          5.47587       -1.82450       -0.83333
H          5.91074       -1.34791        0.85347
H          5.64612       -3.06190        0.44632
Mg         3.80373        0.30933       -1.59172
C          5.19433       -1.16964       -3.84704
C          3.14187       -0.15536       -4.51898
O          4.01443       -0.49032       -3.43003
C          4.96948       -2.64882       -4.22305
C          3.73566        0.58809       -5.73425
H          5.72671       -0.59970       -4.63395
H          5.91843       -1.17802       -3.01093
H          2.64091       -1.07047       -4.89585
H          2.36299        0.52285       -4.11860
H          4.46870       -0.02808       -6.29619
H          2.91193        0.81032       -6.45077
H          4.18931        1.55008       -5.44298
H          3.95998       -2.91860       -4.60471
H          5.79958       -3.01247       -4.88281
H          5.02302       -3.23609       -3.30230
C          3.25466        3.28003       -1.02591
C          3.65429        4.55586       -1.32585
C          4.65619        4.46540       -2.23890
C          4.86081        3.11244       -2.46498
N          4.00424        2.37825       -1.71588
C          5.87270        2.58804       -3.41406
N          7.19889        3.05795       -3.00310
C          8.33822        2.60369       -3.82867
H          3.23549        5.48144       -0.91816
H          2.47846        3.02903       -0.32309
H          5.19585        5.29924       -2.71358
H          5.81020        1.49069       -3.38685
H          5.62059        2.98024       -4.41956
C          8.23243        3.12403       -5.28070
C          9.61437        3.17204       -3.19696
C          8.44631        1.06673       -3.83167
H          8.16879        4.23437       -5.29190
H          9.12960        2.82136       -5.86625
H          7.34718        2.71147       -5.80325
H          9.69681        2.85400       -2.13512
H         10.52149        2.81615       -3.73744
H          9.60927        4.28373       -3.22477
H          8.51305        0.68101       -2.79174
H          7.57990        0.61063       -4.33479
H          9.34618        0.73960       -4.39544

