%chk=speciation71.chk
%nprocshared=16
%mem=32GB
#p opt=loose PM7 scf=xqc 

 speciation study

-1 1
Mg         5.11324       -0.64158       -1.53946
C          6.59768       -2.82657       -2.32801
C          5.23409       -1.94304       -4.05072
O          5.39971       -2.13924       -2.64528
C          7.90624       -2.10022       -2.67746
C          3.90696       -1.22675       -4.38120
H          6.59611       -2.97434       -1.22706
H          6.60905       -3.85114       -2.77126
H          6.07668       -1.38137       -4.48298
H          5.18693       -2.93002       -4.55182
H          3.88250       -0.16433       -4.05273
H          3.75371       -1.22430       -5.48370
H          3.03667       -1.74632       -3.92399
H          7.85727       -1.10797       -2.26439
H          8.77276       -2.57437       -2.17837
H          8.10173       -2.04981       -3.76821
H          5.23326        6.49100       -0.28130
C          6.52197        6.88390       -1.96259
C          5.99298        5.94002       -0.87646
C          5.36300        7.43662       -2.77782
H          7.07292        7.73206       -1.49727
H          7.22351        6.34044       -2.63136
H          4.82886        6.57695       -3.20405
H          4.65978        7.99154       -2.11794
C          5.85383        8.36986       -3.88495
H          6.83141        5.71759       -0.18332
H          6.30015        9.28173       -3.43580
H          6.61945        7.87089       -4.51657
H          5.00672        8.67499       -4.53523
C          2.85064        4.60800        0.61379
C          1.87905        3.96059        1.35662
C          1.90008        2.64160        0.96760
C          2.91278        2.53270        0.02830
N          3.47846        3.73898       -0.21186
C          3.36829        1.24177       -0.58775
N          4.79783        0.94561       -0.32767
C          5.31445        0.76942        1.05823
H          1.23498        4.39670        2.11109
H          3.08503        5.65991        0.69288
H          1.27638        1.84664        1.35967
H          3.22856        1.33469       -1.68871
H          2.74557        0.39085       -0.24036
C          4.62978       -0.37540        1.82608
C          6.81263        0.40675        0.98555
C          5.18855        2.06347        1.87791
H          4.78929       -1.35518        1.33070
H          5.08723       -0.44770        2.84185
H          3.54988       -0.18440        1.97508
H          7.42170        1.23719        0.59970
H          7.22617        0.22146        1.99865
H          6.96679       -0.50655        0.36810
H          5.67666        2.91728        1.35790
H          4.14233        2.30751        2.09184
H          5.63237        1.94008        2.88334
Mg         4.96489        4.10827       -1.54568
C          1.66543        4.85986       -3.12853
C          1.77359        5.60383       -4.28150
C          3.02024        5.34159       -4.82553
C          3.64334        4.45524       -4.04003
N          2.84220        4.12235       -2.93027
C          5.00638        3.86975       -4.30839
N          5.43901        2.98267       -3.20587
C          6.76698        2.32031       -3.45317
H          1.00657        6.25222       -4.68689
H          0.80333        4.82605       -2.47651
H          3.41239        5.77252       -5.73797
H          5.73106        4.70013       -4.43600
H          4.91794        3.31465       -5.26123
C          7.87335        3.37178       -3.55663
C          7.15852        1.34702       -2.33774
C          6.72945        1.41700       -4.70592
H          7.75483        4.09621       -2.72577
H          8.88379        2.91578       -3.48753
H          7.81056        3.89493       -4.52909
H          6.44535        0.50940       -2.30021
H          8.16753        0.93244       -2.57508
H          7.26892        1.79345       -1.35674
H          5.90120        0.70620       -4.57925
H          6.55526        1.95263       -5.65005
H          7.67522        0.83574       -4.81743

