%chk=lowest10_c1_a2_speciation7_speciationDFT0_speciationDFT37b_rank04_E204.92.chk
%nprocshared=20
%mem=40GB
#p opt=loose PM7/gen scf=xqc 

lowest10_c1_a2_speciation7_speciationDFT0_speciationDFT37b_rank04_E204.92 DFT input

0 1
Mg      0.391780000000000      0.397320000000000     -0.003850000000000
C      -0.993120000000000      0.895650000000000     -2.839120000000000
C      -0.859860000000000      2.913820000000000     -1.575640000000000
O      -1.109820000000000      1.524210000000000     -1.577260000000000
C       0.389950000000000      1.022050000000000     -3.476950000000000
C      -1.979240000000000      3.691200000000000     -2.248960000000000
H      -1.153970000000000     -0.182250000000000     -2.654370000000000
H      -1.807650000000000      1.194040000000000     -3.528510000000000
H      -0.828550000000000      3.224710000000000     -0.508460000000000
H       0.137540000000000      3.176010000000000     -1.984320000000000
H      -2.955340000000000      3.385020000000000     -1.817180000000000
H      -1.828070000000000      4.777200000000000     -2.079100000000000
H      -1.974970000000000      3.497910000000000     -3.340360000000000
H       1.181630000000000      0.794670000000000     -2.735880000000000
H       0.471050000000000      0.303250000000000     -4.319020000000000
H       0.542150000000000      2.043140000000000     -3.878610000000000
H       2.943970000000000      0.826620000000000     -0.259420000000000
C       2.285510000000000      2.084880000000000      1.394560000000000
C       2.125240000000000      1.529180000000000     -0.005500000000000
C       2.202700000000000      0.960710000000000      2.433350000000000
H       3.267240000000000      2.596550000000000      1.441070000000000
H       1.473840000000000      2.819080000000000      1.597220000000000
H       1.177350000000000      0.535020000000000      2.440000000000000
H       2.914900000000000      0.146660000000000      2.182170000000000
C       2.542670000000000      1.483450000000000      3.823180000000000
H       2.069500000000000      2.340510000000000     -0.758580000000000
H       3.587460000000000      1.861380000000000      3.828290000000000
H       1.854080000000000      2.304290000000000      4.114990000000000
H       2.460000000000000      0.661120000000000      4.564430000000000
C      -1.235060000000000     -0.528000000000000      3.314120000000000
C      -1.626700000000000      0.582290000000000      2.593970000000000
C      -1.844200000000000      0.160780000000000      1.296540000000000
C      -1.560120000000000     -1.139110000000000      1.273530000000000
N      -1.197130000000000     -1.570350000000000      2.555850000000000
C      -1.599500000000000     -2.051000000000000      0.070220000000000
N      -0.514070000000000     -1.742250000000000     -0.877120000000000
C       0.676860000000000     -2.627780000000000     -0.883830000000000
H      -1.716330000000000      1.596700000000000      2.968740000000000
H      -0.977700000000000     -0.553170000000000      4.359120000000000
H      -2.162440000000000      0.774330000000000      0.471270000000000
H      -2.574400000000000     -1.916790000000000     -0.444690000000000
H      -1.553510000000000     -3.095680000000000      0.417350000000000
C       0.289900000000000     -4.057600000000000     -1.308590000000000
C       1.665990000000000     -2.074590000000000     -1.929600000000000
C       1.388960000000000     -2.648260000000000      0.485640000000000
H      -0.260360000000000     -4.032760000000000     -2.273060000000000
H       1.199150000000000     -4.684010000000000     -1.435450000000000
H      -0.339900000000000     -4.560870000000000     -0.551930000000000
H       2.012240000000000     -1.060130000000000     -1.644540000000000
H       2.566680000000000     -2.722070000000000     -2.015530000000000
H       1.186160000000000     -2.009790000000000     -2.929880000000000
H       1.768450000000000     -1.638470000000000      0.750320000000000
H       0.709610000000000     -2.991200000000000      1.289520000000000
H       2.257050000000000     -3.343190000000000      0.461270000000000
Na      1.156610000000000    -13.856990000000000      1.098610000000000
C      -0.607650000000000    -13.188810000000000     -1.478320000000000
C       1.570520000000000    -12.509510000000001     -2.024930000000000
O       0.606120000000000    -12.643370000000001     -0.998090000000000
C      -0.588400000000000    -14.711880000000001     -1.396250000000000
C       1.468500000000000    -11.145590000000000     -2.702830000000000
H      -1.428490000000000    -12.815480000000001     -0.829930000000000
H      -0.852710000000000    -12.851260000000000     -2.510510000000000
H       2.575360000000000    -12.595260000000000     -1.558760000000000
H       1.508660000000000    -13.324490000000001     -2.779930000000000
H       1.618370000000000    -10.331510000000000     -1.963730000000000
H       2.253870000000000    -11.062790000000000     -3.482420000000000
H       0.476640000000000    -11.020339999999999     -3.183960000000000
H      -0.417220000000000    -15.037240000000001     -0.348840000000000
H      -1.563740000000000    -15.114020000000000     -1.740720000000000
H       0.213390000000000    -15.127780000000000     -2.039680000000000
C       3.148060000000000    -15.993980000000001     -0.579000000000000
C       3.366070000000000    -16.264430000000001      1.779160000000000
O       2.858540000000000    -15.484439999999999      0.710650000000000
C       2.521220000000000    -17.360920000000000     -0.857240000000000
C       4.892310000000000    -16.339639999999999      1.808960000000000
H       2.699500000000000    -15.283480000000001     -1.304550000000000
H       4.236880000000000    -15.985300000000001     -0.790760000000000
H       3.051820000000000    -15.756150000000000      2.715990000000000
H       2.898860000000000    -17.270090000000000      1.818270000000000
H       5.320980000000000    -15.316120000000000      1.794090000000000
H       5.216000000000000    -16.853400000000001      2.738180000000000
H       5.279940000000000    -16.922390000000000      0.949120000000000
H       1.428210000000000    -17.326960000000000     -0.664650000000000
H       2.691270000000000    -17.630109999999998     -1.920800000000000
H       2.987700000000000    -18.149360000000001     -0.232830000000000
Na      0.513130000000000    -10.518370000000001      0.104960000000000
C       0.569430000000000    -11.761790000000000      3.194070000000000
C       2.712430000000000    -11.239839999999999      2.409490000000000
O       1.403160000000000    -11.641240000000000      2.059940000000000
C      -0.880130000000000    -11.829610000000001      2.729400000000000
C       3.546190000000000    -12.407290000000000      2.933570000000000
H       0.799030000000000    -12.702439999999999      3.738950000000000
H       0.657800000000000    -10.886390000000000      3.876040000000000
H       3.199130000000000    -10.866199999999999      1.483020000000000
H       2.715720000000000    -10.386229999999999      3.122880000000000
H       3.576750000000000    -13.222120000000000      2.181240000000000
H       4.583400000000000    -12.062070000000000      3.127450000000000
H       3.125460000000000    -12.798610000000000      3.882260000000000
H      -1.023550000000000    -12.689200000000000      2.040130000000000
H      -1.552410000000000    -11.955290000000000      3.604080000000000
H      -1.156180000000000    -10.894399999999999      2.199050000000000
C      -0.619520000000000     -7.623580000000000      1.257790000000000
C      -2.209970000000000     -8.567640000000001     -0.134580000000000
O      -0.977620000000000     -8.763610000000000      0.515120000000000
C       0.732130000000000     -7.885860000000000      1.907950000000000
C      -2.552900000000000     -9.842810000000000     -0.893140000000000
H      -0.516050000000000     -6.734660000000000      0.597000000000000
H      -1.360550000000000     -7.431790000000000      2.065860000000000
H      -3.021450000000000     -8.377409999999999      0.603500000000000
H      -2.141250000000000     -7.734570000000000     -0.870070000000000
H      -2.628440000000000    -10.694879999999999     -0.184050000000000
H      -3.522500000000000     -9.726120000000000     -1.420220000000000
H      -1.760360000000000    -10.067170000000001     -1.639670000000000
H       1.499370000000000     -8.082820000000000      1.128240000000000
H       1.045180000000000     -7.007910000000000      2.509970000000000
H       0.664320000000000     -8.771340000000000      2.573370000000000
Mg      6.912360000000000    -10.851459999999999      0.132800000000000
H       6.657400000000000     -8.189030000000001      1.823700000000000
C       8.839990000000000     -8.368639999999999      1.761300000000000
C       7.444750000000000     -8.969799999999999      1.811670000000000
C       9.063400000000000     -7.482380000000000      0.528110000000000
H       8.980570000000000     -7.755710000000000      2.675970000000000
H       9.592300000000000     -9.185860000000000      1.768950000000000
H       8.322039999999999     -6.654010000000000      0.514330000000000
H      10.078960000000000     -7.040910000000000      0.611520000000000
C       8.991239999999999     -8.251110000000001     -0.792940000000000
H       7.339210000000000     -9.630830000000000      2.698790000000000
H       7.969300000000000     -8.643560000000001     -0.968410000000000
H       9.249060000000000     -7.565210000000000     -1.628610000000000
H       9.715619999999999     -9.093520000000000     -0.795490000000000
C       5.338250000000000     -9.801150000000000     -2.420250000000000
C       5.208500000000000    -10.317850000000000     -3.699000000000000
C       5.954000000000000    -11.486269999999999     -3.740770000000000
C       6.523090000000000    -11.620780000000000     -2.493670000000000
N       6.133810000000000    -10.611160000000000     -1.703430000000000
C       7.447890000000000    -12.720739999999999     -2.007370000000000
N       8.023360000000000    -12.342359999999999     -0.699220000000000
C       8.997680000000001    -13.212770000000001     -0.017580000000000
H       4.632600000000000     -9.894200000000000     -4.510540000000000
H       4.878770000000000     -8.896879999999999     -2.042860000000000
H       6.078020000000000    -12.150910000000000     -4.584700000000000
H       6.856260000000000    -13.656430000000000     -1.930390000000000
H       8.263130000000000    -12.842070000000000     -2.745160000000000
C      10.288349999999999    -13.304430000000000     -0.855480000000000
C       9.346399999999999    -12.584740000000000      1.343650000000000
C       8.413119999999999    -14.616790000000000      0.215080000000000
H      10.712540000000001    -12.289050000000000     -1.018360000000000
H      11.051360000000001    -13.924519999999999     -0.338420000000000
H      10.097350000000000    -13.765879999999999     -1.845300000000000
H       8.442480000000000    -12.504130000000000      1.984560000000000
H      10.099580000000000    -13.204280000000001      1.879770000000000
H       9.770840000000000    -11.567440000000000      1.208260000000000
H       7.484560000000000    -14.551290000000000      0.819950000000000
H       8.178290000000001    -15.115890000000000     -0.747440000000000
H       9.143850000000000    -15.256860000000000      0.755270000000000

-C 0
6-31g(d,p)
****
-H 0
6-31g(d,p)
****
-Mg 0
6-31g(d,p)
****
-N 0
6-31+g(d,p)
****
-Na 0
6-31g(d,p)
****
-O 0
6-31+g(d,p)
****


