%chk=lowest10_c1_a2_speciation7_speciationDFT2_speciationDFT37b_rank03_E207.14.chk
%nprocshared=20
%mem=40GB
#p opt=loose PM7/gen scf=xqc 

lowest10_c1_a2_speciation7_speciationDFT2_speciationDFT37b_rank03_E207.14 DFT input

0 1
Mg     -0.107150000000000      0.355120000000000     -0.338410000000000
C      -3.117340000000000     -0.503180000000000      0.256130000000000
C      -2.866400000000000      1.868280000000000      0.322270000000000
O      -2.328270000000000      0.603960000000000      0.645860000000000
C      -3.381800000000000     -0.587050000000000     -1.246700000000000
C      -4.065690000000000      2.209830000000000      1.190730000000000
H      -2.527130000000000     -1.399450000000000      0.519320000000000
H      -4.044610000000000     -0.584590000000000      0.857060000000000
H      -2.068710000000000      2.611720000000000      0.540670000000000
H      -3.084680000000000      1.984290000000000     -0.759220000000000
H      -3.805030000000000      2.056060000000000      2.259150000000000
H      -4.347540000000000      3.271020000000000      1.030700000000000
H      -4.926580000000000      1.566540000000000      0.919290000000000
H      -2.447420000000000     -0.414360000000000     -1.816770000000000
H      -3.768960000000000     -1.597750000000000     -1.493870000000000
H      -4.142760000000000      0.158890000000000     -1.549290000000000
H       0.119830000000000      0.773100000000000     -2.887150000000000
C       0.844020000000000      2.587190000000000     -1.916080000000000
C      -0.167940000000000      1.471250000000000     -2.076040000000000
C       2.210800000000000      2.022110000000000     -1.511960000000000
H       0.906400000000000      3.121990000000000     -2.884310000000000
H       0.499710000000000      3.290390000000000     -1.124830000000000
H       2.147380000000000      1.586860000000000     -0.492780000000000
H       2.522140000000000      1.218940000000000     -2.212580000000000
C       3.273250000000000      3.113460000000000     -1.530530000000000
H      -1.186220000000000      1.869730000000000     -2.255970000000000
H       3.371790000000000      3.513870000000000     -2.562330000000000
H       3.000330000000000      3.938470000000000     -0.840060000000000
H       4.251880000000000      2.691550000000000     -1.219400000000000
C       2.756520000000000      0.863520000000000      2.105860000000000
C       1.555420000000000      1.533240000000000      2.239980000000000
C       0.559570000000000      0.580100000000000      2.153890000000000
C       1.169430000000000     -0.584640000000000      1.948820000000000
N       2.559750000000000     -0.395670000000000      1.942660000000000
C       0.511900000000000     -1.926600000000000      1.737320000000000
N      -0.165220000000000     -1.995770000000000      0.430420000000000
C       0.511140000000000     -2.727390000000000     -0.668960000000000
H       1.420430000000000      2.602740000000000      2.355540000000000
H       3.737980000000000      1.309330000000000      2.117950000000000
H      -0.500750000000000      0.758970000000000      2.219830000000000
H      -0.240570000000000     -2.084020000000000      2.539110000000000
H       1.273310000000000     -2.715720000000000      1.843310000000000
C       0.666540000000000     -4.219150000000000     -0.315640000000000
C      -0.387330000000000     -2.626800000000000     -1.918510000000000
C       1.884320000000000     -2.112160000000000     -1.013750000000000
H      -0.315880000000000     -4.644720000000000     -0.020020000000000
H       1.049020000000000     -4.786480000000000     -1.191430000000000
H       1.389060000000000     -4.380530000000000      0.506800000000000
H      -0.492160000000000     -1.571220000000000     -2.242870000000000
H       0.041630000000000     -3.196680000000000     -2.772300000000000
H      -1.402330000000000     -3.026510000000000     -1.706460000000000
H       1.772000000000000     -1.070600000000000     -1.382730000000000
H       2.554850000000000     -2.103140000000000     -0.133130000000000
H       2.385940000000000     -2.704210000000000     -1.810590000000000
Na     -0.304440000000000      8.664780000000000     -5.419410000000000
C       1.185230000000000      9.876090000000000     -2.870600000000000
C       1.907960000000000      7.649710000000000     -3.030190000000000
O       0.835700000000000      8.552049999999999     -3.225500000000000
C       1.779860000000000     10.619660000000000     -4.062630000000000
C       1.881540000000000      7.056630000000000     -1.623840000000000
H       0.257040000000000     10.401350000000001     -2.560760000000000
H       1.871000000000000      9.919430000000000     -1.994730000000000
H       1.791240000000000      6.821970000000000     -3.761960000000000
H       2.899030000000000      8.110250000000001     -3.239040000000000
H       0.928130000000000      6.517000000000000     -1.445890000000000
H       2.719700000000000      6.338150000000000     -1.514050000000000
H       1.995880000000000      7.853080000000000     -0.860030000000000
H       1.056700000000000     10.635360000000000     -4.904790000000000
H       2.010460000000000     11.665030000000000     -3.769640000000000
H       2.716880000000000     10.131530000000000     -4.399720000000000
C       2.561760000000000      8.025950000000000     -7.049310000000000
C       0.690730000000000      7.971090000000000     -8.525790000000001
O       1.152070000000000      8.022160000000000     -7.187170000000000
C       3.238460000000000      9.250900000000000     -7.665450000000000
C       1.082900000000000      6.688270000000000     -9.258860000000000
H       2.769750000000000      8.060510000000001     -5.959340000000000
H       3.013410000000000      7.078080000000000     -7.406940000000000
H      -0.419230000000000      7.985300000000000     -8.475759999999999
H       0.972280000000000      8.879820000000000     -9.097040000000000
H       0.767420000000000      5.801720000000000     -8.669449999999999
H       0.578770000000000      6.662670000000000    -10.247529999999999
H       2.176470000000000      6.650320000000000     -9.437020000000000
H       2.783360000000000     10.181300000000000     -7.265220000000000
H       4.318360000000000      9.238099999999999     -7.407840000000000
H       3.156490000000000      9.238460000000000     -8.770980000000000
Na     -1.061710000000000      7.576020000000000     -2.146410000000000
C      -3.180120000000000      8.143050000000001     -4.645140000000000
C      -2.190090000000000      6.026330000000000     -4.789480000000000
O      -2.041270000000000      7.361130000000000     -4.349400000000000
C      -3.111020000000000      9.432740000000001     -3.836300000000000
C      -1.933210000000000      5.887500000000000     -6.288790000000000
H      -3.188140000000000      8.414310000000000     -5.722510000000000
H      -4.127120000000000      7.628120000000000     -4.367110000000000
H      -1.426180000000000      5.418820000000000     -4.258080000000000
H      -3.175600000000000      5.595840000000000     -4.505070000000000
H      -0.921510000000000      6.267570000000000     -6.539570000000000
H      -1.992420000000000      4.816590000000000     -6.575350000000000
H      -2.691450000000000      6.447160000000000     -6.873480000000000
H      -2.178410000000000      9.987880000000001     -4.074450000000000
H      -3.982780000000000     10.076390000000000     -4.076670000000000
H      -3.125860000000000      9.204459999999999     -2.750120000000000
C      -3.591010000000000      7.096670000000000     -0.059630000000000
C      -2.374790000000000      8.948440000000000      0.615900000000000
O      -2.543780000000000      7.977260000000000     -0.387910000000000
C      -3.701810000000000      6.057560000000000     -1.167690000000000
C      -1.251570000000000      9.882920000000000      0.185970000000000
H      -3.378660000000000      6.562100000000000      0.893660000000000
H      -4.559190000000000      7.642740000000000     -0.000120000000000
H      -3.299420000000000      9.555970000000000      0.740090000000000
H      -2.081030000000000      8.474050000000000      1.579270000000000
H      -1.515880000000000     10.373690000000000     -0.775190000000000
H      -1.087490000000000     10.664980000000000      0.956090000000000
H      -0.309740000000000      9.308710000000000      0.047990000000000
H      -2.749840000000000      5.490750000000000     -1.257290000000000
H      -4.525690000000000      5.347550000000000     -0.947910000000000
H      -3.910270000000000      6.560160000000000     -2.134980000000000
Mg     -1.349690000000000     16.122930000000000     -6.131520000000000
H       1.499860000000000     17.243320000000001     -5.886150000000000
C       0.586210000000000     18.043500000000002     -4.057530000000000
C       0.561580000000000     17.727290000000000     -5.546970000000000
C       0.653460000000000     16.792210000000001     -3.166420000000000
H       1.448530000000000     18.710540000000002     -3.849480000000000
H      -0.349510000000000     18.587750000000000     -3.804570000000000
H       0.671480000000000     17.132390000000001     -2.108050000000000
H      -0.254630000000000     16.169640000000001     -3.312450000000000
C       1.887790000000000     15.926959999999999     -3.416570000000000
H       0.381550000000000     18.643899999999999     -6.144910000000000
H       1.857900000000000     15.485290000000001     -4.434260000000000
H       2.813650000000000     16.527539999999998     -3.297580000000000
H       1.905560000000000     15.091110000000000     -2.685330000000000
C      -3.050650000000000     15.192539999999999     -3.615420000000000
C      -3.907910000000000     14.120469999999999     -3.430360000000000
C      -3.922600000000000     13.404680000000001     -4.617950000000000
C      -3.058940000000000     14.058380000000000     -5.468710000000000
N      -2.551570000000000     15.139110000000001     -4.861010000000000
C      -2.699420000000000     13.685430000000000     -6.895070000000000
N      -1.558000000000000     14.506850000000000     -7.352080000000000
C      -0.995990000000000     14.339000000000000     -8.704200000000000
H      -4.465100000000000     13.888019999999999     -2.533050000000000
H      -2.814770000000000     15.959510000000000     -2.889000000000000
H      -4.486980000000000     12.507989999999999     -4.832000000000000
H      -3.595810000000000     13.856550000000000     -7.526090000000000
H      -2.412990000000000     12.617120000000000     -6.915980000000000
C      -2.074920000000000     14.546329999999999     -9.782489999999999
C       0.116450000000000     15.384539999999999     -8.905609999999999
C      -0.375490000000000     12.934089999999999     -8.834400000000000
H      -2.524370000000000     15.558290000000000     -9.691350000000000
H      -1.632900000000000     14.445700000000000    -10.797480000000000
H      -2.879910000000000     13.788349999999999     -9.693479999999999
H       0.911220000000000     15.268620000000000     -8.137390000000000
H       0.584610000000000     15.269650000000000     -9.908830000000000
H      -0.292570000000000     16.414909999999999     -8.830470000000000
H       0.408160000000000     12.787929999999999     -8.058570000000000
H      -1.140840000000000     12.141370000000000     -8.710470000000001
H       0.089840000000000     12.798679999999999     -9.833830000000001

-C 0
6-31g(d,p)
****
-H 0
6-31g(d,p)
****
-Mg 0
6-31g(d,p)
****
-N 0
6-31+g(d,p)
****
-Na 0
6-31g(d,p)
****
-O 0
6-31+g(d,p)
****


