%chk=lowest10_c1_a2_speciation0_speciationDFT38_speciationDFT96_rank09_E187.10.chk
%nprocshared=20
%mem=40GB
#p opt=loose PM7/gen scf=xqc 

lowest10_c1_a2_speciation0_speciationDFT38_speciationDFT96_rank09_E187.10 DFT input

0 1
Mg     -0.140780000000000     -0.230620000000000     -0.379990000000000
C      -2.417820000000000      2.045620000000000      1.012020000000000
C      -1.643250000000000      0.393290000000000      2.549190000000000
O      -1.452070000000000      1.055030000000000      1.312870000000000
C      -2.381940000000000      3.243030000000000      1.956670000000000
C      -2.934680000000000     -0.417960000000000      2.615190000000000
H      -2.172180000000000      2.421280000000000     -0.004770000000000
H      -3.439600000000000      1.627240000000000      0.937550000000000
H      -0.813610000000000     -0.334840000000000      2.646470000000000
H      -1.528570000000000      1.080390000000000      3.411820000000000
H      -3.007830000000000     -1.093240000000000      1.737720000000000
H      -2.931360000000000     -1.031530000000000      3.540080000000000
H      -3.818270000000000      0.249140000000000      2.649610000000000
H      -1.359720000000000      3.668550000000000      2.008960000000000
H      -3.074560000000000      4.022570000000000      1.575600000000000
H      -2.716780000000000      2.950810000000000      2.971350000000000
H      -2.132430000000000      0.770130000000000     -2.348720000000000
C      -3.373290000000000     -0.745070000000000     -1.358590000000000
C      -2.062920000000000     -0.258520000000000     -1.938590000000000
C      -4.417270000000000     -0.818340000000000     -2.459880000000000
H      -3.228400000000000     -1.747210000000000     -0.904920000000000
H      -3.703750000000000     -0.046470000000000     -0.565460000000000
H      -4.547420000000000      0.191310000000000     -2.907010000000000
H      -4.067640000000000     -1.522230000000000     -3.246290000000000
C      -5.749480000000000     -1.299870000000000     -1.908350000000000
H      -1.642070000000000     -0.973310000000000     -2.675750000000000
H      -5.637020000000000     -2.313020000000000     -1.466550000000000
H      -6.116890000000000     -0.598290000000000     -1.129070000000000
H      -6.487640000000000     -1.343880000000000     -2.734420000000000
C       4.652440000000000      0.771750000000000     -0.623580000000000
C       4.866000000000000     -0.558850000000000     -0.877060000000000
C       3.949270000000000     -1.285720000000000     -0.126160000000000
C       3.184840000000000     -0.418060000000000      0.552370000000000
N       3.598850000000000      0.897310000000000      0.291220000000000
C       2.069460000000000     -0.716920000000000      1.535800000000000
N       0.847690000000000     -1.324040000000000      0.981450000000000
C       0.682170000000000     -2.755080000000000      0.685300000000000
H       5.623700000000000     -0.950370000000000     -1.543850000000000
H       5.196220000000000      1.604410000000000     -1.047610000000000
H       3.895610000000000     -2.358360000000000     -0.100350000000000
H       1.750360000000000      0.269100000000000      1.939980000000000
H       2.450350000000000     -1.289710000000000      2.399290000000000
C       1.548360000000000     -3.616280000000000      1.607230000000000
C      -0.797510000000000     -3.103890000000000      0.937780000000000
C       0.973750000000000     -3.032790000000000     -0.803620000000000
H       1.300890000000000     -3.388150000000000      2.667250000000000
H       1.359820000000000     -4.691220000000000      1.416610000000000
H       2.622560000000000     -3.414240000000000      1.441570000000000
H      -1.456470000000000     -2.485470000000000      0.295550000000000
H      -1.003390000000000     -4.172050000000000      0.709370000000000
H      -1.077990000000000     -2.906710000000000      1.994250000000000
H       0.267130000000000     -2.476230000000000     -1.458810000000000
H       1.988630000000000     -2.731370000000000     -1.097900000000000
H       0.858540000000000     -4.115500000000000     -1.024650000000000
C       1.486910000000000      1.958320000000000     -1.971030000000000
C       1.047890000000000      2.811280000000000      0.185280000000000
O       0.635240000000000      1.932100000000000     -0.842290000000000
C       1.606030000000000      0.553990000000000     -2.567520000000000
C       0.683470000000000      4.244790000000000     -0.139940000000000
H       1.037480000000000      2.625460000000000     -2.733760000000000
H       2.514510000000000      2.312410000000000     -1.739160000000000
H       0.533330000000000      2.511550000000000      1.119870000000000
H       2.122610000000000      2.740300000000000      0.420180000000000
H      -0.406380000000000      4.322160000000000     -0.330390000000000
H       0.959160000000000      4.891280000000000      0.718630000000000
H       1.245890000000000      4.572700000000000     -1.037400000000000
H       2.057750000000000     -0.150400000000000     -1.845450000000000
H       0.611460000000000      0.156450000000000     -2.853090000000000
H       2.249190000000000      0.581580000000000     -3.471030000000000
Na      7.911810000000000     -5.749130000000000      5.142420000000000
C       8.130470000000001     -4.005560000000000      7.917760000000000
C       6.702540000000000     -2.977710000000000      6.431240000000000
O       7.983530000000000     -3.548640000000000      6.590300000000000
C       9.516760000000000     -4.610870000000000      8.086130000000001
C       6.543060000000000     -2.501250000000000      4.994590000000000
H       8.038940000000000     -3.161780000000000      8.639279999999999
H       7.382870000000000     -4.798780000000000      8.147570000000000
H       5.906970000000000     -3.730740000000000      6.628850000000000
H       6.578530000000000     -2.094570000000000      7.098560000000000
H       6.649450000000000     -3.356650000000000      4.294110000000000
H       5.537810000000000     -2.048920000000000      4.858360000000000
H       7.315290000000000     -1.738640000000000      4.757580000000000
H      10.295480000000000     -3.847370000000000      7.875080000000000
H       9.643700000000001     -4.974280000000000      9.127990000000000
H       9.647729999999999     -5.465800000000000      7.389230000000000
Na      9.613220000000000     -1.473280000000000      6.453280000000000
Mg      1.860330000000000     -7.360550000000000      7.432930000000000
C       0.086030000000000    -10.114129999999999      6.686280000000000
C       2.068570000000000    -10.036770000000001      5.354330000000000
O       1.186110000000000     -9.351120000000000      6.219900000000000
C       0.450940000000000    -11.460710000000001      7.316530000000000
C       1.429780000000000    -10.395890000000000      4.017990000000000
H      -0.384880000000000     -9.514519999999999      7.490830000000000
H      -0.682410000000000    -10.229010000000001      5.894770000000000
H       2.908230000000000     -9.346550000000001      5.141780000000000
H       2.540620000000000    -10.910410000000001      5.846100000000000
H       2.204720000000000    -10.828550000000000      3.351350000000000
H       1.007760000000000     -9.488099999999999      3.539190000000000
H       0.626780000000000    -11.146110000000000      4.159150000000000
H       1.210400000000000    -11.324790000000000      8.107820000000000
H       0.828330000000000    -12.168220000000000      6.550930000000000
H      -0.452450000000000    -11.907999999999999      7.778180000000000
H       0.973330000000000     -5.797030000000000      5.423400000000000
C       3.092270000000000     -5.274920000000000      5.598530000000000
C       1.723670000000000     -5.601440000000000      6.216140000000000
C       3.729800000000000     -6.422360000000000      4.791120000000000
H       2.989630000000000     -4.380680000000000      4.947850000000000
H       3.791570000000000     -5.029310000000000      6.425440000000000
H       4.716100000000000     -6.072340000000000      4.411750000000000
H       3.915800000000000     -7.291140000000000      5.455120000000000
C       2.899130000000000     -6.868330000000000      3.588430000000000
H       1.377840000000000     -4.751380000000000      6.837250000000000
H       1.924830000000000     -7.281190000000000      3.915490000000000
H       2.727500000000000     -6.017480000000000      2.899970000000000
H       3.442630000000000     -7.664890000000000      3.034730000000000
C       4.625810000000000    -10.183650000000000      7.811490000000000
C       4.925450000000000     -8.841060000000001      7.845210000000000
C       3.999920000000000     -8.230070000000000      8.671260000000000
C       3.151740000000000     -9.165260000000000      9.109439999999999
N       3.506040000000000    -10.437970000000000      8.620950000000001
C       1.950030000000000     -8.903600000000001      9.977530000000000
N       1.031580000000000     -8.008660000000001      9.260540000000001
C      -0.160620000000000     -7.484660000000000      9.970340000000000
H       5.728970000000000     -8.358490000000000      7.304360000000000
H       5.155660000000000    -10.934720000000000      7.242840000000000
H       3.942120000000000     -7.172560000000000      8.891230000000000
H       2.295140000000000     -8.454860000000000     10.928860000000000
H       1.445510000000000     -9.871270000000001     10.182860000000000
C       0.252350000000000     -6.540660000000000     11.117160000000000
C      -1.021970000000000     -6.697750000000000      8.969540000000000
C      -1.012920000000000     -8.642270000000000     10.542220000000000
H       0.852840000000000     -5.692540000000000     10.727240000000000
H      -0.648190000000000     -6.131870000000000     11.626740000000000
H       0.845210000000000     -7.072580000000000     11.888750000000000
H      -1.359820000000000     -7.352660000000000      8.139089999999999
H      -1.925440000000000     -6.283850000000000      9.471460000000000
H      -0.445210000000000     -5.852320000000000      8.539580000000001
H      -1.327790000000000     -9.335760000000001      9.733720000000000
H      -0.452460000000000     -9.222730000000000     11.304349999999999
H      -1.929070000000000     -8.250650000000000     11.036500000000000

-C 0
6-31g(d,p)
****
-H 0
6-31g(d,p)
****
-Mg 0
6-31g(d,p)
****
-N 0
6-31+g(d,p)
****
-Na 0
6-31g(d,p)
****
-O 0
6-31+g(d,p)
****


