%chk=lowest10_c1_a2_speciation7_speciationDFT0_speciationDFT0_rank02_E218.05.chk
%nprocshared=20
%mem=40GB
#p opt=loose PM7/gen scf=xqc 

lowest10_c1_a2_speciation7_speciationDFT0_speciationDFT0_rank02_E218.05 DFT input

0 1
Mg     -0.394640000000000      0.837940000000000     -0.582090000000000
H      -3.296050000000000      1.135160000000000     -1.614570000000000
C      -3.006940000000000     -1.007450000000000     -1.999590000000000
C      -2.503950000000000      0.423140000000000     -1.920990000000000
C      -3.596360000000000     -1.517380000000000     -0.676350000000000
H      -3.793880000000000     -1.045740000000000     -2.780960000000000
H      -2.172820000000000     -1.671840000000000     -2.310870000000000
H      -4.443420000000000     -0.871090000000000     -0.358530000000000
H      -3.987500000000000     -2.538950000000000     -0.864940000000000
C      -2.575830000000000     -1.610800000000000      0.460850000000000
H      -2.058530000000000      0.733960000000000     -2.891290000000000
H      -2.237440000000000     -0.603340000000000      0.776710000000000
H      -3.052090000000000     -2.106650000000000      1.334760000000000
H      -1.697170000000000     -2.217360000000000      0.153870000000000
C      -0.957730000000000      1.845090000000000      2.377340000000000
C      -0.176910000000000      1.816740000000000      3.523780000000000
C       1.016380000000000      1.203560000000000      3.176220000000000
C       0.910180000000000      0.868400000000000      1.847750000000000
N      -0.284130000000000      1.274420000000000      1.374320000000000
C       1.932250000000000      0.172610000000000      0.975950000000000
N       1.315430000000000     -0.227190000000000     -0.305310000000000
C       2.081790000000000     -0.985300000000000     -1.310150000000000
H      -0.442170000000000      2.201810000000000      4.496940000000000
H      -1.954630000000000      2.265690000000000      2.293030000000000
H       1.864820000000000      1.012000000000000      3.822400000000000
H       2.771770000000000      0.880020000000000      0.809570000000000
H       2.289470000000000     -0.727950000000000      1.509990000000000
C       2.429030000000000     -2.378490000000000     -0.749730000000000
C       1.208190000000000     -1.171920000000000     -2.564010000000000
C       3.366260000000000     -0.234900000000000     -1.704650000000000
H       1.497030000000000     -2.920200000000000     -0.477220000000000
H       2.981540000000000     -2.981810000000000     -1.500720000000000
H       3.067500000000000     -2.306040000000000      0.153400000000000
H       0.941610000000000     -0.190430000000000     -3.010990000000000
H       1.749150000000000     -1.768390000000000     -3.332530000000000
H       0.269280000000000     -1.708400000000000     -2.311620000000000
H       3.117950000000000      0.770060000000000     -2.108190000000000
H       4.040150000000000     -0.113130000000000     -0.831910000000000
H       3.923530000000000     -0.801160000000000     -2.481900000000000
Na      0.838310000000000     -9.030690000000000     -0.721090000000000
C       0.194980000000000     -6.686010000000000      1.357300000000000
C       0.693330000000000     -8.550150000000000      2.691460000000000
O       0.120160000000000     -8.093360000000001      1.480880000000000
C       1.493370000000000     -6.270440000000000      0.673530000000000
C      -0.347440000000000     -8.607229999999999      3.806680000000000
H      -0.654760000000000     -6.354100000000000      0.723740000000000
H       0.075850000000000     -6.160810000000000      2.331790000000000
H       1.077900000000000     -9.577800000000000      2.517300000000000
H       1.569280000000000     -7.941220000000000      3.008120000000000
H      -1.181270000000000     -9.283530000000001      3.526430000000000
H       0.125430000000000     -8.996449999999999      4.731990000000000
H      -0.754740000000000     -7.596310000000000      4.014430000000000
H       1.566950000000000     -6.741510000000000     -0.328830000000000
H       1.511190000000000     -5.168370000000000      0.552930000000000
H       2.369810000000000     -6.573780000000000      1.281410000000000
C       3.990930000000000     -9.431760000000001      0.436820000000000
C       3.688690000000000    -10.490090000000000     -1.676910000000000
O       3.082020000000000     -9.859830000000001     -0.562050000000000
C       4.971290000000000     -8.358829999999999     -0.039720000000000
C       4.401050000000000    -11.796440000000000     -1.327060000000000
H       3.379400000000000     -8.971060000000000      1.240680000000000
H       4.511420000000000    -10.286970000000000      0.914460000000000
H       2.866110000000000    -10.750880000000000     -2.376930000000000
H       4.345860000000000     -9.796010000000001     -2.240330000000000
H       3.705130000000000    -12.473780000000000     -0.790010000000000
H       4.738130000000000    -12.291910000000000     -2.261470000000000
H       5.298260000000000    -11.607790000000000     -0.703690000000000
H       4.417770000000000     -7.504620000000000     -0.483410000000000
H       5.562010000000000     -7.994190000000000      0.826670000000000
H       5.684660000000000     -8.769690000000001     -0.782300000000000
Na     -2.048760000000000     -9.122420000000000      1.359140000000000
C      -1.778210000000000    -10.028219999999999     -1.844060000000000
C      -1.097700000000000    -11.719469999999999     -0.376140000000000
O      -1.221660000000000    -10.326409999999999     -0.580220000000000
C      -2.219430000000000     -8.569970000000000     -1.851310000000000
C       0.130260000000000    -12.291050000000000     -1.081650000000000
H      -1.013330000000000    -10.158989999999999     -2.639280000000000
H      -2.677050000000000    -10.646970000000000     -2.064300000000000
H      -0.966380000000000    -11.880739999999999      0.715430000000000
H      -2.021510000000000    -12.271690000000000     -0.658080000000000
H       1.044830000000000    -11.762639999999999     -0.742200000000000
H       0.228890000000000    -13.369149999999999     -0.835740000000000
H       0.035290000000000    -12.191210000000000     -2.182200000000000
H      -1.355500000000000     -7.905390000000000     -1.635790000000000
H      -2.635890000000000     -8.305780000000000     -2.846070000000000
H      -3.001410000000000     -8.403290000000000     -1.081410000000000
C      -5.342450000000000     -9.482530000000001      1.206060000000000
C      -4.842000000000000     -7.260140000000000      1.617170000000000
O      -4.315100000000000     -8.525200000000000      1.298060000000000
C      -4.708950000000000    -10.831090000000000      0.891200000000000
C      -3.689210000000000     -6.266640000000000      1.674500000000000
H      -5.888170000000000     -9.575880000000000      2.172130000000000
H      -6.043100000000000     -9.228940000000000      0.379120000000000
H      -5.553140000000000     -6.917440000000000      0.832130000000000
H      -5.334160000000000     -7.277390000000000      2.615720000000000
H      -3.176300000000000     -6.226340000000000      0.689770000000000
H      -4.068310000000000     -5.253930000000000      1.924470000000000
H      -2.955230000000000     -6.579220000000000      2.448660000000000
H      -3.999950000000000    -11.117860000000000      1.697690000000000
H      -5.492560000000000    -11.611929999999999      0.804050000000000
H      -4.153740000000000    -10.772000000000000     -0.067780000000000
Mg      0.989880000000000    -14.534590000000000      2.893600000000000
H      -1.880690000000000    -15.824290000000000      2.425010000000000
C      -0.761590000000000    -17.620349999999998      2.987720000000000
C      -0.862420000000000    -16.253340000000001      2.329850000000000
C      -1.098420000000000    -17.585159999999998      4.484710000000000
H      -1.472470000000000    -18.300529999999998      2.473640000000000
H       0.265860000000000    -18.019439999999999      2.850180000000000
H      -2.128650000000000    -17.194859999999998      4.633980000000000
H      -1.061910000000000    -18.628409999999999      4.863810000000000
C      -0.114090000000000    -16.750060000000001      5.306080000000000
H      -0.575810000000000    -16.316980000000001      1.258150000000000
H      -0.166220000000000    -15.680370000000000      5.019350000000000
H      -0.373060000000000    -16.834949999999999      6.383460000000000
H       0.924180000000000    -17.119530000000001      5.164920000000000
C       0.086910000000000    -12.465330000000000      5.127880000000000
C       0.814740000000000    -11.678830000000000      6.006490000000000
C       2.154550000000000    -11.949290000000000      5.773850000000000
C       2.186880000000000    -12.902550000000000      4.780770000000000
N       0.936500000000000    -13.193540000000000      4.389200000000000
C       3.403350000000000    -13.562939999999999      4.161950000000000
N       2.975980000000000    -14.699780000000001      3.319270000000000
C       3.962260000000000    -15.549329999999999      2.629550000000000
H       0.415970000000000    -10.984130000000000      6.732520000000000
H      -0.991760000000000    -12.497030000000001      5.037350000000000
H       3.005110000000000    -11.512390000000000      6.280360000000000
H       3.941920000000000    -12.798769999999999      3.563560000000000
H       4.050690000000000    -13.935300000000000      4.978600000000000
C       4.822200000000000    -16.297000000000001      3.667740000000000
C       3.204420000000000    -16.590229999999998      1.786580000000000
C       4.857860000000000    -14.710480000000000      1.701410000000000
H       4.173630000000000    -16.905809999999999      4.335700000000000
H       5.544400000000000    -16.976009999999999      3.166250000000000
H       5.405090000000000    -15.592169999999999      4.294430000000000
H       2.572410000000000    -16.092610000000001      1.020170000000000
H       3.917290000000000    -17.266960000000001      1.264950000000000
H       2.547450000000000    -17.212060000000001      2.430980000000000
H       4.239100000000000    -14.173349999999999      0.952450000000000
H       5.445610000000000    -13.967350000000000      2.278480000000000
H       5.578590000000000    -15.363519999999999      1.163330000000000

-C 0
6-31g(d,p)
****
-H 0
6-31g(d,p)
****
-Mg 0
6-31g(d,p)
****
-N 0
6-31+g(d,p)
****
-Na 0
6-31g(d,p)
****
-O 0
6-31+g(d,p)
****


