%chk=lowest10_c1_a2_speciation7_speciationDFT2_speciationDFT37b_rank09_E207.47.chk
%nprocshared=20
%mem=40GB
#p opt=loose PM7/gen scf=xqc 

lowest10_c1_a2_speciation7_speciationDFT2_speciationDFT37b_rank09_E207.47 DFT input

0 1
Mg      0.133250000000000     -0.531470000000000      0.132950000000000
C      -1.105820000000000     -0.961440000000000     -2.773680000000000
C       1.039400000000000     -1.986580000000000     -2.588920000000000
O       0.218760000000000     -0.879040000000000     -2.284650000000000
C      -1.894520000000000     -2.161340000000000     -2.250140000000000
C       1.411200000000000     -2.025680000000000     -4.062010000000000
H      -1.621640000000000     -0.060380000000000     -2.396040000000000
H      -1.147390000000000     -0.873360000000000     -3.877330000000000
H       1.977200000000000     -1.849020000000000     -2.007360000000000
H       0.617170000000000     -2.950290000000000     -2.237010000000000
H       1.807570000000000     -1.035370000000000     -4.370430000000000
H       2.189260000000000     -2.799400000000000     -4.226300000000000
H       0.521400000000000     -2.279760000000000     -4.672160000000000
H      -1.759320000000000     -2.268660000000000     -1.155590000000000
H      -2.973500000000000     -2.010720000000000     -2.463470000000000
H      -1.568390000000000     -3.091470000000000     -2.755740000000000
H      -0.552480000000000     -2.556200000000000      1.605430000000000
C       1.619470000000000     -2.419730000000000      1.746280000000000
C       0.330750000000000     -2.420120000000000      0.950110000000000
C       1.647720000000000     -1.242420000000000      2.727750000000000
H       1.679220000000000     -3.386210000000000      2.284550000000000
H       2.484500000000000     -2.326720000000000      1.051960000000000
H       1.695590000000000     -0.288070000000000      2.162810000000000
H       0.727130000000000     -1.231850000000000      3.348420000000000
C       2.851260000000000     -1.342280000000000      3.656550000000000
H       0.343900000000000     -3.195770000000000      0.158610000000000
H       2.774280000000000     -2.272490000000000      4.259260000000000
H       3.797520000000000     -1.358970000000000      3.075700000000000
H       2.866310000000000     -0.473390000000000      4.347460000000000
C       2.400470000000000      2.279360000000000      1.402740000000000
C       2.697420000000000      1.531140000000000      0.286110000000000
C       1.570590000000000      1.525040000000000     -0.515950000000000
C       0.611530000000000      2.224350000000000      0.102240000000000
N       1.086310000000000      2.760800000000000      1.315970000000000
C      -0.798960000000000      2.435260000000000     -0.381930000000000
N      -1.587460000000000      1.192330000000000     -0.306800000000000
C      -2.526330000000000      1.028000000000000      0.830510000000000
H       3.636380000000000      1.027550000000000      0.094700000000000
H       3.064690000000000      2.463760000000000      2.234270000000000
H       1.485250000000000      1.018460000000000     -1.465030000000000
H      -0.770040000000000      2.780720000000000     -1.437660000000000
H      -1.256470000000000      3.239820000000000      0.213680000000000
C      -3.626720000000000      2.106180000000000      0.789980000000000
C      -3.204630000000000     -0.348700000000000      0.679300000000000
C      -1.798570000000000      1.056740000000000      2.191710000000000
H      -4.113760000000000      2.115480000000000     -0.208120000000000
H      -4.400320000000000      1.898590000000000      1.560290000000000
H      -3.230600000000000      3.116890000000000      1.004900000000000
H      -2.456530000000000     -1.164660000000000      0.750460000000000
H      -3.959280000000000     -0.517940000000000      1.479020000000000
H      -3.713930000000000     -0.430070000000000     -0.304980000000000
H      -1.082160000000000      0.212330000000000      2.278200000000000
H      -1.245520000000000      2.004630000000000      2.333600000000000
H      -2.530110000000000      0.969390000000000      3.024980000000000
Na      0.069030000000000      8.386790000000000     -3.346730000000000
C       2.976290000000000      8.976610000000001     -4.525020000000000
C       2.873600000000000      6.651780000000000     -4.227120000000000
O       2.468960000000000      7.916340000000000     -3.738000000000000
C       2.015780000000000      9.318980000000000     -5.659650000000000
C       4.191840000000000      6.211580000000000     -3.595250000000000
H       3.074390000000000      9.868760000000000     -3.870900000000000
H       3.996710000000000      8.769380000000000     -4.918880000000000
H       2.088830000000000      5.915650000000000     -3.950500000000000
H       2.946300000000000      6.624520000000000     -5.337030000000000
H       4.093850000000000      6.152900000000000     -2.491370000000000
H       4.465940000000000      5.206470000000000     -3.978490000000000
H       5.005120000000000      6.922090000000000     -3.849480000000000
H       1.021990000000000      9.597020000000001     -5.250370000000000
H       2.417020000000000     10.176660000000000     -6.238570000000000
H       1.895930000000000      8.454680000000000     -6.344160000000000
C      -0.826020000000000      6.473290000000000     -5.959970000000000
C      -2.723820000000000      7.148130000000000     -4.684730000000000
O      -1.311730000000000      7.072080000000000     -4.771760000000000
C      -1.181140000000000      7.246770000000000     -7.230330000000000
C      -3.408570000000000      5.781770000000000     -4.651640000000000
H       0.281440000000000      6.477290000000000     -5.882640000000000
H      -1.113960000000000      5.404410000000000     -6.030330000000000
H      -2.952220000000000      7.644850000000000     -3.717360000000000
H      -3.152920000000000      7.810200000000000     -5.465090000000000
H      -2.969400000000000      5.155370000000000     -3.846800000000000
H      -4.491720000000000      5.919770000000000     -4.451580000000000
H      -3.309420000000000      5.263430000000000     -5.626630000000000
H      -0.853730000000000      8.303830000000000     -7.138900000000000
H      -0.663160000000000      6.782580000000000     -8.095739999999999
H      -2.270860000000000      7.207370000000000     -7.430380000000000
Na      2.980830000000000      7.921060000000000     -1.401130000000000
C       0.068870000000000      9.203500000000000     -0.436690000000000
C       0.053080000000000      6.861940000000000     -0.412970000000000
O       0.594020000000000      8.023590000000000     -1.009780000000000
C       0.942640000000000     10.380810000000000     -0.852940000000000
C      -1.339610000000000      6.539850000000000     -0.951000000000000
H      -0.958600000000000      9.388629999999999     -0.816710000000000
H       0.070760000000000      9.166960000000000      0.675900000000000
H       0.721770000000000      6.014720000000000     -0.677850000000000
H       0.056050000000000      6.918270000000000      0.697970000000000
H      -1.306030000000000      6.428080000000000     -2.054240000000000
H      -1.695770000000000      5.587270000000000     -0.507440000000000
H      -2.061100000000000      7.338490000000000     -0.683770000000000
H       0.977580000000000     10.462890000000000     -1.960500000000000
H       0.529850000000000     11.323370000000001     -0.436590000000000
H       1.975600000000000     10.245150000000001     -0.469950000000000
C       4.336970000000000      8.709519999999999      1.517820000000000
C       5.402210000000000      9.886630000000000     -0.168130000000000
O       4.332860000000000      9.028760000000000      0.147560000000000
C       3.177420000000000      7.759350000000000      1.786570000000000
C       5.321980000000000     10.215669999999999     -1.652920000000000
H       5.280270000000000      8.191689999999999      1.803720000000000
H       4.184680000000000      9.623410000000000      2.134760000000000
H       5.326690000000000     10.840690000000000      0.400610000000000
H       6.378940000000000      9.388040000000000      0.023960000000000
H       4.355450000000000     10.715870000000001     -1.876850000000000
H       6.152880000000000     10.892540000000000     -1.940970000000000
H       5.390620000000000      9.283170000000000     -2.254200000000000
H       3.295370000000000      6.832270000000000      1.184820000000000
H       3.142750000000000      7.490180000000000      2.862460000000000
H       2.219700000000000      8.245670000000000      1.507940000000000
Mg     -0.447310000000000     15.503850000000000     -5.848880000000000
H       0.568130000000000     15.292310000000001     -8.741320000000000
C       2.153390000000000     16.513719999999999     -7.839350000000000
C       0.689280000000000     16.153820000000000     -8.053750000000001
C       2.958370000000000     15.410650000000000     -7.132600000000000
H       2.609130000000000     16.752089999999999     -8.822880000000000
H       2.195560000000000     17.423269999999999     -7.201640000000000
H       4.005540000000000     15.770080000000000     -7.030380000000000
H       2.553530000000000     15.235440000000001     -6.113310000000000
C       2.975240000000000     14.083380000000000     -7.889500000000000
H       0.120190000000000     17.021570000000001     -8.445259999999999
H       1.958500000000000     13.640129999999999     -7.927480000000000
H       3.357220000000000     14.229600000000000     -8.921390000000001
H       3.637500000000000     13.366099999999999     -7.359790000000000
C       1.503220000000000     15.549120000000000     -3.344880000000000
C       1.408380000000000     14.967300000000000     -2.090070000000000
C       0.215600000000000     14.261329999999999     -2.066220000000000
C      -0.355560000000000     14.423320000000000     -3.307230000000000
N       0.425610000000000     15.214670000000000     -4.064440000000000
C      -1.662900000000000     13.851129999999999     -3.815620000000000
N      -1.772880000000000     14.069110000000000     -5.273480000000000
C      -2.948390000000000     13.596869999999999     -6.025830000000000
H       2.122320000000000     15.051810000000000     -1.283760000000000
H       2.310780000000000     16.180160000000001     -3.698830000000000
H      -0.184680000000000     13.685650000000001     -1.241280000000000
H      -2.488070000000000     14.355270000000001     -3.270390000000000
H      -1.673520000000000     12.764189999999999     -3.606380000000000
C      -4.248460000000000     14.188079999999999     -5.450930000000000
C      -2.804070000000000     14.044079999999999     -7.492170000000000
C      -3.001110000000000     12.056760000000001     -5.987640000000000
H      -4.213770000000000     15.298260000000001     -5.476970000000000
H      -5.124710000000000     13.847530000000001     -6.044120000000000
H      -4.407870000000000     13.859909999999999     -4.403400000000000
H      -1.869560000000000     13.640040000000001     -7.938050000000000
H      -3.663220000000000     13.680260000000001     -8.098950000000000
H      -2.773460000000000     15.152419999999999     -7.565050000000000
H      -2.063760000000000     11.630870000000000     -6.408790000000000
H      -3.119100000000000     11.682210000000000     -4.950670000000000
H      -3.858420000000000     11.675800000000001     -6.582250000000000

-C 0
6-31g(d,p)
****
-H 0
6-31g(d,p)
****
-Mg 0
6-31g(d,p)
****
-N 0
6-31+g(d,p)
****
-Na 0
6-31g(d,p)
****
-O 0
6-31+g(d,p)
****


