%chk=lowest10_c1_a2_speciation0_speciationDFT0_speciationDFT1_rank03_E178.42.chk
%nprocshared=20
%mem=40GB
#p opt=loose PM7/gen scf=xqc 

lowest10_c1_a2_speciation0_speciationDFT0_speciationDFT1_rank03_E178.42 DFT input

0 1
Mg      0.574380000000000     -0.060530000000000     -0.411450000000000
H       0.558170000000000      1.559550000000000     -2.934450000000000
C      -1.262970000000000      0.376320000000000     -3.234420000000000
C       0.178140000000000      0.527470000000000     -2.791030000000000
C      -1.356640000000000      0.636930000000000     -4.732510000000000
H      -1.610380000000000     -0.653690000000000     -3.000250000000000
H      -1.893250000000000      1.099640000000000     -2.671530000000000
H      -0.993850000000000      1.665770000000000     -4.947240000000000
H      -0.712520000000000     -0.092640000000000     -5.270600000000000
C      -2.787640000000000      0.498510000000000     -5.228070000000000
H       0.841500000000000     -0.226560000000000     -3.263980000000000
H      -3.162210000000000     -0.529640000000000     -5.037410000000000
H      -3.444250000000000      1.231850000000000     -4.713580000000000
H      -2.812520000000000      0.695100000000000     -6.319750000000000
C       3.131350000000000      1.290090000000000      0.891920000000000
C       3.550620000000000      1.369950000000000      2.210470000000000
C       2.596710000000000      0.717010000000000      2.975820000000000
C       1.633390000000000      0.278090000000000      2.098570000000000
N       1.967810000000000      0.624860000000000      0.846650000000000
C       0.373470000000000     -0.500790000000000      2.422780000000000
N      -0.484960000000000     -0.607950000000000      1.225700000000000
C      -1.791700000000000     -1.287240000000000      1.290120000000000
H       4.450540000000000      1.844680000000000      2.574660000000000
H       3.649730000000000      1.689700000000000      0.028060000000000
H       2.597510000000000      0.582230000000000      4.048800000000000
H      -0.171280000000000      0.036070000000000      3.220460000000000
H       0.684930000000000     -1.506430000000000      2.772190000000000
C      -2.739370000000000     -0.494450000000000      2.210020000000000
C      -2.406070000000000     -1.331190000000000     -0.121020000000000
C      -1.631360000000000     -2.728300000000000      1.804920000000000
H      -2.867780000000000      0.541650000000000      1.826210000000000
H      -3.736870000000000     -0.979300000000000      2.261290000000000
H      -2.343510000000000     -0.436730000000000      3.243640000000000
H      -1.759910000000000     -1.909490000000000     -0.815260000000000
H      -3.407540000000000     -1.816960000000000     -0.095940000000000
H      -2.533010000000000     -0.305420000000000     -0.528230000000000
H      -0.939680000000000     -3.298090000000000      1.147610000000000
H      -1.230030000000000     -2.736520000000000      2.837930000000000
H      -2.613410000000000     -3.247730000000000      1.822510000000000
Na      2.496610000000000     -6.659730000000000      4.851180000000000
C       1.257110000000000     -8.950820000000000      2.898190000000000
C      -0.071640000000000     -8.680840000000000      4.760930000000000
O       1.250130000000000     -8.882350000000001      4.308140000000000
C       2.683590000000000     -9.174659999999999      2.416090000000000
C      -0.071020000000000     -8.593920000000001      6.280620000000000
H       0.639990000000000     -9.806390000000000      2.540360000000000
H       0.894710000000000     -7.995520000000000      2.454640000000000
H      -0.484290000000000     -7.723930000000000      4.367290000000000
H      -0.722480000000000     -9.536610000000000      4.469460000000000
H       0.559030000000000     -7.742390000000000      6.615180000000000
H      -1.107620000000000     -8.438780000000000      6.648020000000000
H       0.327070000000000     -9.535100000000000      6.716450000000000
H       3.081870000000000    -10.126250000000001      2.828010000000000
H       2.700780000000000     -9.229240000000001      1.306810000000000
H       3.334250000000000     -8.336290000000000      2.744000000000000
Na      1.802120000000000    -11.350310000000000      5.056350000000000
Mg      1.462370000000000     -4.144620000000000      9.184839999999999
H       0.556600000000000     -4.130230000000000     12.209199999999999
C       1.368610000000000     -2.100300000000000     12.063700000000001
C       1.363320000000000     -3.573530000000000     11.690730000000000
C       0.046160000000000     -1.395320000000000     11.731579999999999
H       1.552200000000000     -2.026150000000000     13.155840000000000
H       2.201190000000000     -1.590690000000000     11.533640000000000
H      -0.794620000000000     -1.890100000000000     12.264790000000000
H       0.123820000000000     -0.349330000000000     12.096109999999999
C      -0.259240000000000     -1.349860000000000     10.232830000000000
H       2.349690000000000     -4.033780000000000     11.915190000000001
H      -0.434980000000000     -2.368590000000000      9.832319999999999
H      -1.178190000000000     -0.747240000000000     10.066290000000000
H       0.576700000000000     -0.873740000000000      9.677049999999999
C      -1.393650000000000     -4.801030000000000      7.956550000000000
C      -1.866550000000000     -4.764590000000000      6.654890000000000
C      -0.817100000000000     -4.337740000000000      5.855670000000000
C       0.242890000000000     -4.111570000000000      6.705010000000000
N      -0.109770000000000     -4.409000000000000      7.963180000000000
C       1.631030000000000     -3.615600000000000      6.347770000000000
N       2.370910000000000     -3.277160000000000      7.582000000000000
C       3.736390000000000     -2.726540000000000      7.521370000000000
H      -2.862790000000000     -5.022960000000000      6.322880000000000
H      -1.951960000000000     -5.097760000000000      8.835129999999999
H      -0.829610000000000     -4.195680000000000      4.784570000000000
H       2.145180000000000     -4.417100000000000      5.780610000000000
H       1.527410000000000     -2.709980000000000      5.721050000000000
C       3.707620000000000     -1.342640000000000      6.842940000000000
C       4.259130000000000     -2.552540000000000      8.958769999999999
C       4.679220000000000     -3.674010000000000      6.758820000000000
H       3.029760000000000     -0.657850000000000      7.398800000000000
H       4.722580000000000     -0.891860000000000      6.822520000000000
H       3.351330000000000     -1.411970000000000      5.795330000000000
H       4.302580000000000     -3.530260000000000      9.484700000000000
H       5.282270000000000     -2.114640000000000      8.953490000000000
H       3.597140000000000     -1.873890000000000      9.537060000000000
H       4.702080000000000     -4.671990000000000      7.246530000000000
H       4.353210000000000     -3.798380000000000      5.705760000000000
H       5.712040000000000     -3.263420000000000      6.743400000000000

-C 0
6-31g(d,p)
****
-H 0
6-31g(d,p)
****
-Mg 0
6-31g(d,p)
****
-N 0
6-31+g(d,p)
****
-Na 0
6-31g(d,p)
****
-O 0
6-31+g(d,p)
****


