%chk=lowest10_c1_a2_speciation7_speciationDFT0_speciationDFT2_rank06_E218.89.chk
%nprocshared=20
%mem=40GB
#p opt=loose PM7/gen scf=xqc 

lowest10_c1_a2_speciation7_speciationDFT0_speciationDFT2_rank06_E218.89 DFT input

0 1
Mg     -0.042470000000000      0.981720000000000     -0.273210000000000
H      -2.991730000000000      1.713670000000000     -0.162630000000000
C      -2.645370000000000      1.695110000000000     -2.334570000000000
C      -2.242950000000000      2.047630000000000     -0.909300000000000
C      -2.708840000000000      0.181460000000000     -2.599910000000000
H      -3.626300000000000      2.166090000000000     -2.551180000000000
H      -1.886480000000000      2.124630000000000     -3.024000000000000
H      -3.022160000000000      0.037720000000000     -3.656970000000000
H      -1.702780000000000     -0.272440000000000     -2.475470000000000
C      -3.694530000000000     -0.558930000000000     -1.697830000000000
H      -2.058330000000000      3.135620000000000     -0.798600000000000
H      -3.358810000000000     -0.524710000000000     -0.640460000000000
H      -4.707830000000000     -0.114350000000000     -1.782680000000000
H      -3.743380000000000     -1.625750000000000     -2.003440000000000
C       1.203360000000000     -0.851270000000000     -2.550680000000000
C       2.169880000000000     -1.842650000000000     -2.501630000000000
C       2.559230000000000     -1.961060000000000     -1.176240000000000
C       1.802980000000000     -1.052110000000000     -0.471950000000000
N       0.999540000000000     -0.381910000000000     -1.309740000000000
C       1.834480000000000     -0.776020000000000      1.019010000000000
N       0.692030000000000      0.083010000000000      1.395380000000000
C       0.475700000000000      0.478890000000000      2.799160000000000
H       2.553860000000000     -2.411580000000000     -3.337000000000000
H       0.692160000000000     -0.496740000000000     -3.437130000000000
H       3.299440000000000     -2.636790000000000     -0.770450000000000
H       2.799580000000000     -0.278270000000000      1.246570000000000
H       1.761520000000000     -1.740230000000000      1.555330000000000
C       1.715280000000000      1.189210000000000      3.372660000000000
C      -0.724280000000000      1.442280000000000      2.863360000000000
C       0.144230000000000     -0.770040000000000      3.638030000000000
H       1.959740000000000      2.089610000000000      2.769540000000000
H       1.529950000000000      1.505620000000000      4.422070000000000
H       2.595020000000000      0.513520000000000      3.379740000000000
H      -1.637900000000000      0.964740000000000      2.448190000000000
H      -0.934890000000000      1.733900000000000      3.916940000000000
H      -0.519910000000000      2.367470000000000      2.283160000000000
H      -0.756610000000000     -1.278360000000000      3.228860000000000
H       0.985350000000000     -1.491140000000000      3.631830000000000
H      -0.054430000000000     -0.496720000000000      4.695830000000000
Na      1.325340000000000     -7.934390000000000      7.742910000000000
C       3.345360000000000    -10.202980000000000      8.743240000000000
C       3.024170000000000    -10.646780000000000      6.462110000000000
O       2.438410000000000    -10.167980000000000      7.658000000000000
C       4.130870000000000     -8.898740000000000      8.835590000000000
C       2.819700000000000    -12.152130000000000      6.312650000000000
H       2.754840000000000    -10.321240000000000      9.676410000000001
H       4.033810000000000    -11.077030000000001      8.701680000000000
H       2.521470000000000    -10.138170000000001      5.611880000000000
H       4.104190000000000    -10.391200000000000      6.381200000000000
H       1.737950000000000    -12.399150000000001      6.306580000000000
H       3.263290000000000    -12.490390000000000      5.353430000000000
H       3.311690000000000    -12.698700000000001      7.143430000000000
H       3.436360000000000     -8.040410000000000      8.949719999999999
H       4.804580000000000     -8.933009999999999      9.716850000000001
H       4.745600000000000     -8.747880000000000      7.924950000000000
C       3.536400000000000     -6.703430000000000      5.500430000000000
C       1.744700000000000     -5.182350000000000      5.894370000000000
O       2.258100000000000     -6.491010000000000      6.072850000000000
C       4.639690000000000     -5.843290000000000      6.118540000000000
C       1.492630000000000     -4.819510000000000      4.431250000000000
H       3.801520000000000     -7.761100000000000      5.709050000000000
H       3.512660000000000     -6.616790000000000      4.394820000000000
H       0.758000000000000     -5.159500000000000      6.404830000000000
H       2.361710000000000     -4.419100000000000      6.411950000000000
H       0.851950000000000     -5.590620000000000      3.955680000000000
H       0.973550000000000     -3.840550000000000      4.382270000000000
H       2.445680000000000     -4.724720000000000      3.872660000000000
H       4.656400000000000     -5.976570000000000      7.220750000000000
H       5.620850000000000     -6.155230000000000      5.703160000000000
H       4.497010000000000     -4.771730000000000      5.872540000000000
Na      0.362460000000000    -11.356410000000000      7.888530000000000
C      -1.444090000000000     -8.665760000000001      8.691879999999999
C      -1.481270000000000     -9.113239999999999      6.394790000000000
O      -0.742500000000000     -9.214790000000001      7.595410000000000
C      -0.775980000000000     -9.129250000000001      9.980290000000000
C      -1.390870000000000     -7.714990000000000      5.787240000000000
H      -1.395280000000000     -7.556200000000000      8.660310000000001
H      -2.503110000000000     -9.007080000000000      8.727020000000000
H      -1.030930000000000     -9.826260000000000      5.671200000000000
H      -2.539310000000000     -9.433140000000000      6.521450000000000
H      -0.329150000000000     -7.441280000000000      5.617760000000000
H      -1.923010000000000     -7.700680000000000      4.813000000000000
H      -1.862120000000000     -6.963890000000000      6.453550000000000
H       0.289010000000000     -8.813020000000000      9.996840000000001
H      -1.295320000000000     -8.686550000000000     10.856140000000000
H      -0.823270000000000    -10.235420000000000     10.059040000000000
C      -1.997300000000000    -13.336630000000000      9.118919999999999
C      -0.063030000000000    -13.598100000000001     10.362940000000000
O      -0.693560000000000    -12.858309999999999      9.345789999999999
C      -2.613230000000000    -12.520140000000000      7.990750000000000
C       1.327490000000000    -13.016600000000000     10.579330000000001
H      -1.980880000000000    -14.403960000000000      8.802180000000000
H      -2.628360000000000    -13.203030000000000     10.026100000000000
H      -0.624400000000000    -13.513790000000000     11.320660000000000
H       0.050460000000000    -14.664550000000000     10.063960000000000
H       1.247760000000000    -11.949909999999999     10.879740000000000
H       1.856610000000000    -13.577100000000000     11.377750000000001
H       1.918170000000000    -13.081410000000000      9.639849999999999
H      -2.007020000000000    -12.628750000000000      7.065510000000000
H      -3.647970000000000    -12.865760000000000      7.787950000000000
H      -2.642610000000000    -11.447699999999999      8.274319999999999
Mg     -0.589840000000000     -9.857559999999999      1.744270000000000
H      -3.422950000000000    -11.208890000000000      2.255190000000000
C      -3.647160000000000    -10.680070000000001      0.142030000000000
C      -3.106930000000000    -10.422630000000000      1.539700000000000
C      -3.186810000000000    -12.026100000000000     -0.434160000000000
H      -4.755830000000000    -10.671210000000000      0.197030000000000
H      -3.323930000000000     -9.859800000000000     -0.533650000000000
H      -3.512490000000000    -12.855960000000000      0.230130000000000
H      -3.677770000000000    -12.156210000000000     -1.421810000000000
C      -1.673620000000000    -12.107519999999999     -0.645290000000000
H      -3.433190000000000     -9.424659999999999      1.903500000000000
H      -1.135210000000000    -12.060910000000000      0.322760000000000
H      -1.424630000000000    -13.072929999999999     -1.136250000000000
H      -1.325690000000000    -11.280820000000000     -1.301010000000000
C       1.157300000000000    -12.379590000000000      2.570160000000000
C       2.503230000000000    -12.662780000000000      2.405270000000000
C       3.064930000000000    -11.584140000000000      1.739030000000000
C       2.034420000000000    -10.699740000000000      1.507370000000000
N       0.895800000000000    -11.180870000000001      2.024890000000000
C       2.099110000000000     -9.361720000000000      0.794750000000000
N       0.728540000000000     -8.864920000000000      0.548770000000000
C       0.494830000000000     -7.600800000000000     -0.171390000000000
H       3.020050000000000    -13.553530000000000      2.735860000000000
H       0.423440000000000    -13.007849999999999      3.057970000000000
H       4.099040000000000    -11.465999999999999      1.445570000000000
H       2.672490000000000     -8.659210000000000      1.434460000000000
H       2.615380000000000     -9.507090000000000     -0.172900000000000
C       0.996180000000000     -7.728210000000000     -1.623490000000000
C      -1.019940000000000     -7.330660000000000     -0.202680000000000
C       1.197660000000000     -6.427380000000000      0.533430000000000
H       0.484340000000000     -8.574350000000001     -2.132990000000000
H       0.789820000000000     -6.798180000000000     -2.195010000000000
H       2.089560000000000     -7.908240000000000     -1.660530000000000
H      -1.423750000000000     -7.228240000000000      0.827290000000000
H      -1.239650000000000     -6.392000000000000     -0.758500000000000
H      -1.555430000000000     -8.163130000000001     -0.706530000000000
H       0.835410000000000     -6.334280000000000      1.578600000000000
H       2.297500000000000     -6.571770000000000      0.548020000000000
H       0.991510000000000     -5.473940000000000      0.000270000000000

-C 0
6-31g(d,p)
****
-H 0
6-31g(d,p)
****
-Mg 0
6-31g(d,p)
****
-N 0
6-31+g(d,p)
****
-Na 0
6-31g(d,p)
****
-O 0
6-31+g(d,p)
****


