%chk=lowest10_c1_a2_speciation0_speciationDFT36_speciationDFT96_rank05_E186.82.chk
%nprocshared=20
%mem=40GB
#p opt=loose PM7/gen scf=xqc 

lowest10_c1_a2_speciation0_speciationDFT36_speciationDFT96_rank05_E186.82 DFT input

0 1
Mg     -0.162590000000000     -0.205210000000000     -0.382950000000000
C       3.270630000000000     -0.140780000000000     -1.011340000000000
C       2.308900000000000      2.017210000000000     -0.670920000000000
O       2.176520000000000      0.615720000000000     -0.527440000000000
C       4.560280000000000      0.078680000000000     -0.227300000000000
C       2.376770000000000      2.479980000000000     -2.123880000000000
H       2.988320000000000     -1.208850000000000     -0.888670000000000
H       3.434130000000000      0.003010000000000     -2.096250000000000
H       1.387800000000000      2.463230000000000     -0.246090000000000
H       3.137800000000000      2.422430000000000     -0.056060000000000
H       1.529550000000000      2.055580000000000     -2.701330000000000
H       2.311990000000000      3.587570000000000     -2.155360000000000
H       3.335880000000000      2.178770000000000     -2.588860000000000
H       4.391350000000000     -0.086280000000000      0.855770000000000
H       5.325130000000000     -0.642760000000000     -0.583980000000000
H       4.947630000000000      1.103150000000000     -0.392940000000000
H       0.719000000000000     -2.406410000000000     -2.149960000000000
C       0.632450000000000     -0.793030000000000     -3.637800000000000
C       0.090830000000000     -1.538330000000000     -2.437770000000000
C       0.621460000000000     -1.711450000000000     -4.847000000000000
H       0.005540000000000      0.101110000000000     -3.833670000000000
H       1.665060000000000     -0.455560000000000     -3.423740000000000
H       1.249730000000000     -2.603350000000000     -4.632450000000000
H      -0.422300000000000     -2.040090000000000     -5.043630000000000
C       1.164810000000000     -0.995210000000000     -6.072700000000000
H      -0.976590000000000     -1.814940000000000     -2.561810000000000
H       0.540350000000000     -0.106070000000000     -6.304650000000000
H       2.212390000000000     -0.671270000000000     -5.893550000000000
H       1.142190000000000     -1.690090000000000     -6.936230000000000
C      -1.884250000000000     -0.886250000000000      4.117710000000000
C      -3.125720000000000     -0.468380000000000      3.691010000000000
C      -2.913360000000000      0.543870000000000      2.767660000000000
C      -1.595150000000000      0.684010000000000      2.653850000000000
N      -0.965120000000000     -0.217270000000000      3.526050000000000
C      -0.811670000000000      1.672680000000000      1.811760000000000
N      -0.895420000000000      1.507750000000000      0.349060000000000
C      -2.012630000000000      1.970780000000000     -0.486110000000000
H      -4.078760000000000     -0.853680000000000      4.031500000000000
H      -1.676140000000000     -1.659780000000000      4.842630000000000
H      -3.683690000000000      1.103000000000000      2.267110000000000
H       0.258220000000000      1.515310000000000      2.068180000000000
H      -1.047340000000000      2.707880000000000      2.106100000000000
C      -2.688680000000000      3.200340000000000      0.125130000000000
C      -1.426700000000000      2.366170000000000     -1.856360000000000
C      -3.014990000000000      0.823650000000000     -0.728650000000000
H      -1.930010000000000      3.999390000000000      0.275750000000000
H      -3.483970000000000      3.580520000000000     -0.546310000000000
H      -3.143520000000000      2.953750000000000      1.101730000000000
H      -0.911900000000000      1.502150000000000     -2.322290000000000
H      -2.224840000000000      2.702750000000000     -2.552760000000000
H      -0.681430000000000      3.182870000000000     -1.750430000000000
H      -2.531810000000000     -0.021150000000000     -1.268410000000000
H      -3.421640000000000      0.415500000000000      0.206780000000000
H      -3.866000000000000      1.179040000000000     -1.347910000000000
C      -0.038960000000000     -2.674380000000000      1.580880000000000
C       1.746980000000000     -1.227590000000000      2.113450000000000
O       0.853830000000000     -1.681210000000000      1.116220000000000
C      -1.411310000000000     -2.489950000000000      0.929010000000000
C       2.862870000000000     -2.226840000000000      2.342180000000000
H       0.357810000000000     -3.666780000000000      1.287130000000000
H      -0.184750000000000     -2.654250000000000      2.682290000000000
H       2.188290000000000     -0.271230000000000      1.769350000000000
H       1.249690000000000     -0.979710000000000      3.066900000000000
H       3.384500000000000     -2.433060000000000      1.385000000000000
H       3.582140000000000     -1.806950000000000      3.074990000000000
H       2.438320000000000     -3.167790000000000      2.746480000000000
H      -1.854790000000000     -1.514280000000000      1.197400000000000
H      -1.338400000000000     -2.535670000000000     -0.175990000000000
H      -2.101030000000000     -3.288020000000000      1.272470000000000
Na     -7.560900000000000      2.013360000000000     12.799930000000000
C      -4.372190000000000      2.782560000000000     12.859170000000001
C      -4.919780000000000      1.765060000000000     10.866580000000001
O      -5.011900000000000      1.669600000000000     12.271599999999999
C      -4.463140000000000      2.666390000000000     14.374160000000000
C      -5.619840000000000      0.570070000000000     10.235939999999999
H      -3.292760000000000      2.811160000000000     12.584450000000000
H      -4.875580000000000      3.730110000000000     12.560269999999999
H      -5.423270000000000      2.687910000000000     10.497859999999999
H      -3.856570000000000      1.740730000000000     10.541430000000000
H      -6.690990000000000      0.555200000000000     10.529150000000000
H      -5.551170000000000      0.636800000000000      9.129250000000001
H      -5.138310000000000     -0.373930000000000     10.568720000000001
H      -3.962020000000000      1.736330000000000     14.717180000000001
H      -3.965010000000000      3.538430000000000     14.848450000000000
H      -5.527120000000000      2.643910000000000     14.692660000000000
Na     -3.419640000000000     -0.346090000000000     12.853310000000000
Mg      0.387990000000000      4.326720000000000      8.717040000000001
C       2.899750000000000      2.056230000000000     10.583180000000000
C       2.306840000000000      0.987900000000000      8.626950000000001
O       1.826960000000000      1.753050000000000      9.713400000000000
C       2.350020000000000      2.483950000000000     11.935210000000000
C       1.179500000000000      0.757580000000000      7.629940000000000
H       3.550240000000000      1.171570000000000     10.768350000000000
H       3.508710000000000      2.885770000000000     10.165330000000001
H       3.134410000000000      1.511970000000000      8.100510000000000
H       2.657910000000000     -0.006870000000000      8.977819999999999
H       0.802310000000000      1.725170000000000      7.241610000000000
H       1.551030000000000      0.152140000000000      6.776070000000000
H       0.344790000000000      0.214100000000000      8.119980000000000
H       1.742180000000000      1.667710000000000     12.376720000000001
H       3.186100000000000      2.734770000000000     12.620680000000000
H       1.711380000000000      3.374880000000000     11.829840000000001
H      -1.703320000000000      1.813380000000000      8.214130000000001
C      -2.180090000000000      3.726610000000000      7.258410000000000
C      -1.711990000000000      2.897210000000000      8.446590000000000
C      -1.259230000000000      3.536050000000000      6.047180000000000
H      -3.213920000000000      3.413230000000000      7.004810000000000
H      -2.187190000000000      4.801540000000000      7.546220000000000
H      -0.236490000000000      3.902920000000000      6.284560000000000
H      -1.198430000000000      2.458030000000000      5.784470000000000
C      -1.789960000000000      4.298970000000000      4.837530000000000
H      -2.340650000000000      3.099880000000000      9.336280000000000
H      -2.800940000000000      3.925120000000000      4.567560000000000
H      -1.847110000000000      5.386660000000000      5.054610000000000
H      -1.112310000000000      4.146240000000000      3.973280000000000
C       2.901210000000000      3.830080000000000      6.851940000000000
C       4.202630000000000      4.291870000000000      6.932710000000000
C       4.275650000000000      5.097890000000000      8.059930000000000
C       3.020480000000000      5.074990000000000      8.629960000000001
N       2.204540000000000      4.314740000000000      7.892140000000000
C       2.545450000000000      5.789930000000000      9.885249999999999
N       1.228150000000000      5.262280000000000     10.318030000000000
C       0.393710000000000      6.062420000000000     11.235510000000000
H       5.006980000000000      4.068190000000000      6.245060000000000
H       2.496480000000000      3.177660000000000      6.088630000000000
H       5.144930000000000      5.625790000000000      8.425530000000000
H       3.272790000000000      5.608140000000000     10.702520000000000
H       2.505410000000000      6.873080000000000      9.655880000000000
C      -0.212710000000000      7.271930000000000     10.504530000000001
C      -0.759410000000000      5.172870000000000     11.744980000000000
C       1.223740000000000      6.525630000000000     12.450240000000001
H      -0.839490000000000      6.932610000000000      9.651710000000000
H      -0.853980000000000      7.857920000000000     11.198880000000001
H       0.573820000000000      7.949230000000000     10.117800000000001
H      -0.374150000000000      4.284230000000000     12.287559999999999
H      -1.414020000000000      5.737500000000000     12.445090000000000
H      -1.385060000000000      4.815620000000000     10.900250000000000
H       1.664950000000000      5.648040000000000     12.971430000000000
H       2.049260000000000      7.197910000000000     12.137169999999999
H       0.589150000000000      7.079910000000000     13.173999999999999

-C 0
6-31g(d,p)
****
-H 0
6-31g(d,p)
****
-Mg 0
6-31g(d,p)
****
-N 0
6-31+g(d,p)
****
-Na 0
6-31g(d,p)
****
-O 0
6-31+g(d,p)
****


