%chk=lowest10_c1_a2_speciation7_speciationDFT36_speciationDFT96_rank08_E228.63.chk
%nprocshared=20
%mem=40GB
#p opt=loose PM7/gen scf=xqc 

lowest10_c1_a2_speciation7_speciationDFT36_speciationDFT96_rank08_E228.63 DFT input

0 1
Mg      0.377170000000000     -0.061460000000000     -0.375080000000000
C      -0.457380000000000     -3.161520000000000      1.010180000000000
C       0.586240000000000     -1.663720000000000      2.547670000000000
O      -0.083210000000000     -1.830100000000000      1.312110000000000
C      -1.511410000000000     -3.730130000000000      1.954770000000000
C       1.933770000000000     -2.377550000000000      2.614370000000000
H      -0.906070000000000     -3.135380000000000     -0.006410000000000
H       0.416050000000000     -3.836700000000000      0.934640000000000
H       0.803590000000000     -0.581320000000000      2.642370000000000
H      -0.066310000000000     -1.905180000000000      3.410950000000000
H       2.555030000000000     -2.106050000000000      1.735930000000000
H       2.464350000000000     -2.065800000000000      3.538070000000000
H       1.796390000000000     -3.476000000000000      2.651560000000000
H      -2.390700000000000     -3.057350000000000      2.009000000000000
H      -1.840960000000000     -4.719000000000000      1.572410000000000
H      -1.089300000000000     -3.875030000000000      2.968590000000000
H       0.501780000000000     -2.273870000000000     -2.343420000000000
C       2.436350000000000     -2.593640000000000     -1.355210000000000
C       1.360090000000000     -1.701760000000000     -1.934660000000000
C       3.020500000000000     -3.459920000000000     -2.457460000000000
H       3.232270000000000     -1.967970000000000     -0.901410000000000
H       1.996970000000000     -3.229480000000000     -0.562310000000000
H       2.210290000000000     -4.076470000000000     -2.904290000000000
H       3.454430000000000     -2.804060000000000     -3.243370000000000
C       4.103900000000000     -4.373630000000000     -1.907750000000000
H       1.767530000000000     -0.976320000000000     -2.668890000000000
H       4.925670000000000     -3.770350000000000     -1.466080000000000
H       3.680710000000000     -5.043320000000000     -1.128720000000000
H       4.510140000000000     -4.990070000000000     -2.734850000000000
C      -2.889160000000000      3.594710000000000     -0.622180000000000
C      -1.844970000000000      4.448900000000000     -0.876550000000000
C      -0.758090000000000      4.016550000000000     -0.126540000000000
C      -1.121130000000000      2.920550000000000      0.550770000000000
N      -2.471880000000000      2.620670000000000      0.288620000000000
C      -0.310130000000000      2.100870000000000      1.532200000000000
N       0.829300000000000      1.346310000000000      0.977370000000000
C       2.149690000000000      1.918140000000000      0.682800000000000
H      -1.887290000000000      5.300330000000000     -1.541620000000000
H      -3.883430000000000      3.648670000000000     -1.046420000000000
H       0.199440000000000      4.508660000000000     -0.102080000000000
H      -1.003410000000000      1.330170000000000      1.933310000000000
H      -0.003970000000000      2.714210000000000      2.397390000000000
C       2.459380000000000      3.098870000000000      1.605150000000000
C       3.192850000000000      0.811890000000000      0.935610000000000
C       2.245290000000000      2.311160000000000     -0.805760000000000
H       2.380130000000000      2.768690000000000      2.664270000000000
H       3.483340000000000      3.479770000000000      1.421800000000000
H       1.743430000000000      3.922280000000000      1.433540000000000
H       2.987320000000000     -0.068400000000000      0.293960000000000
H       4.220280000000000      1.168350000000000      0.706970000000000
H       3.162250000000000      0.470510000000000      1.992140000000000
H       2.119920000000000      1.421340000000000     -1.462260000000000
H       1.474040000000000      3.037120000000000     -1.098810000000000
H       3.239020000000000      2.756680000000000     -1.024460000000000
C      -2.329650000000000      0.262930000000000     -1.968680000000000
C      -2.848210000000000     -0.543370000000000      0.188190000000000
O      -1.880800000000000     -0.460560000000000     -0.839580000000000
C      -1.174250000000000      1.070020000000000     -2.565640000000000
C      -3.908870000000000     -1.573530000000000     -0.138460000000000
H      -2.681310000000000     -0.460890000000000     -2.730990000000000
H      -3.151150000000000      0.974550000000000     -1.737080000000000
H      -2.331730000000000     -0.840980000000000      1.122290000000000
H      -3.322550000000000      0.422770000000000      0.425140000000000
H      -3.432250000000000     -2.556340000000000     -0.330460000000000
H      -4.606710000000000     -1.658090000000000      0.719940000000000
H      -4.473370000000000     -1.248030000000000     -1.035460000000000
H      -0.791770000000000      1.815180000000000     -1.844760000000000
H      -0.330750000000000      0.409700000000000     -2.850550000000000
H      -1.521020000000000      1.611530000000000     -3.469690000000000
Na     -0.520420000000000      9.609999999999999     12.156300000000000
C      -0.068830000000000      9.958360000000001     15.298010000000000
C      -1.924380000000000      8.540590000000000     15.077460000000000
O      -1.214780000000000      9.637190000000000     14.533680000000000
C       1.145190000000000      9.172800000000001     14.812460000000000
C      -2.979020000000000      9.007370000000000     16.077649999999998
H       0.138940000000000     11.040690000000000     15.160810000000000
H      -0.225230000000000      9.810549999999999     16.390250000000002
H      -2.439160000000000      8.022770000000000     14.240190000000000
H      -1.254190000000000      7.784640000000000     15.543609999999999
H      -3.701430000000000      9.693809999999999     15.589280000000000
H      -3.534640000000000      8.127400000000000     16.463780000000000
H      -2.504050000000000      9.530379999999999     16.933050000000001
H       1.336390000000000      9.386740000000000     13.740069999999999
H       2.037750000000000      9.469340000000001     15.401439999999999
H       0.982680000000000      8.083259999999999     14.940250000000001
C      -0.017810000000000      6.289470000000000     12.243050000000000
C       0.138240000000000      7.134800000000000     10.018430000000000
O      -0.217070000000000      7.384960000000000     11.367190000000001
C       1.444570000000000      5.862850000000000     12.375389999999999
C      -0.704220000000000      6.044740000000000      9.356339999999999
H      -0.343180000000000      6.629180000000000     13.248740000000000
H      -0.678390000000000      5.434760000000000     11.991250000000001
H      -0.060160000000000      8.075839999999999      9.461490000000000
H       1.225760000000000      6.946890000000000      9.903770000000000
H      -1.784060000000000      6.275460000000000      9.472590000000000
H      -0.458880000000000      5.998660000000000      8.274570000000001
H      -0.484030000000000      5.050670000000000      9.795249999999999
H       2.073210000000000      6.733630000000000     12.657090000000000
H       1.527750000000000      5.088080000000000     13.166390000000000
H       1.818310000000000      5.419920000000000     11.430320000000000
Na     -2.829210000000000     11.364110000000000     14.172940000000001
C      -1.779980000000000     12.149340000000000     11.118880000000001
C      -3.494640000000000     10.558450000000001     11.074030000000000
O      -2.409110000000000     11.088839999999999     11.807090000000001
C      -0.879330000000000     12.899690000000000     12.091760000000001
C      -3.031330000000000      9.616379999999999      9.963850000000001
H      -1.141530000000000     11.745870000000000     10.306559999999999
H      -2.513660000000000     12.881910000000000     10.713160000000000
H      -4.110170000000000      9.966300000000000     11.784680000000000
H      -4.163910000000000     11.353930000000000     10.678220000000000
H      -2.415740000000000      8.797840000000001     10.390250000000000
H      -3.917990000000000      9.171849999999999      9.465159999999999
H      -2.439950000000000     10.162310000000000      9.200650000000000
H      -0.125160000000000     12.209880000000000     12.527520000000001
H      -0.350980000000000     13.719920000000000     11.561610000000000
H      -1.483600000000000     13.337190000000000     12.913589999999999
C      -4.459950000000000     14.240290000000000     14.393630000000000
C      -2.796080000000000     14.172720000000000     16.002849999999999
O      -3.352540000000000     13.524960000000000     14.884930000000001
C      -5.030580000000000     13.474040000000000     13.207620000000000
C      -1.589270000000000     13.366490000000001     16.464169999999999
H      -5.256820000000000     14.321830000000000     15.166969999999999
H      -4.150130000000000     15.248070000000000     14.036799999999999
H      -2.445520000000000     15.194920000000000     15.735210000000000
H      -3.527360000000000     14.212350000000001     16.841370000000001
H      -0.839250000000000     13.308750000000000     15.646470000000001
H      -1.121860000000000     13.847820000000000     17.348109999999998
H      -1.901570000000000     12.335129999999999     16.737240000000000
H      -5.350810000000000     12.458740000000001     13.527070000000000
H      -5.904240000000000     14.012990000000000     12.786390000000001
H      -4.257720000000000     13.371910000000000     12.417870000000001
Mg     -1.430410000000000     10.221230000000000      3.630220000000000
C       2.033300000000000     11.947350000000000      3.595890000000000
C       0.427500000000000     13.600910000000001      3.666320000000000
O       0.776470000000000     12.357120000000000      3.094580000000000
C       2.610780000000000     10.868670000000000      2.692720000000000
C      -0.974620000000000     13.989590000000000      3.219410000000000
H       2.770390000000000     12.782030000000001      3.608120000000000
H       1.920290000000000     11.534150000000000      4.620680000000000
H       0.436080000000000     13.549540000000000      4.777180000000000
H       1.125240000000000     14.395519999999999      3.323180000000000
H      -1.710860000000000     13.229170000000000      3.549680000000000
H      -1.251560000000000     14.969440000000001      3.662900000000000
H      -1.010990000000000     14.072310000000000      2.113020000000000
H       2.738790000000000     11.260400000000001      1.662690000000000
H       3.593150000000000     10.533370000000000      3.085440000000000
H       1.939110000000000      9.996729999999999      2.652490000000000
H      -2.568410000000000     12.191680000000000      1.227760000000000
C      -3.995890000000000     10.823060000000000      2.170400000000000
C      -2.633710000000000     11.137510000000001      1.564360000000000
C      -4.286470000000000     11.712360000000000      3.385860000000000
H      -4.766170000000000     10.985740000000000      1.388350000000000
H      -4.017490000000000      9.755839999999999      2.484330000000000
H      -3.548580000000000     11.510510000000000      4.192940000000000
H      -4.211370000000000     12.782120000000001      3.095360000000000
C      -5.691630000000000     11.456429999999999      3.923440000000000
H      -2.409210000000000     10.450040000000000      0.723180000000000
H      -6.443920000000000     11.677099999999999      3.136050000000000
H      -5.800430000000000     10.399170000000000      4.246000000000000
H      -5.887200000000000     12.118220000000001      4.793480000000000
C      -1.148310000000000     12.007880000000000      6.229140000000000
C      -0.373890000000000     11.855420000000001      7.366030000000000
C       0.338410000000000     10.675480000000000      7.208810000000000
C      -0.011070000000000     10.172219999999999      5.975190000000000
N      -0.912260000000000     10.985030000000000      5.400330000000000
C       0.476530000000000      8.902889999999999      5.300110000000000
N       0.093300000000000      8.891109999999999      3.867020000000000
C       0.087830000000000      7.614120000000000      3.127750000000000
H      -0.336070000000000     12.527790000000000      8.209730000000000
H      -1.831140000000000     12.825049999999999      6.024170000000000
H       1.042450000000000     10.244009999999999      7.908830000000000
H       1.584170000000000      8.866270000000000      5.358360000000000
H       0.046510000000000      8.044440000000000      5.854190000000000
C      -1.100780000000000      6.739480000000000      3.560140000000000
C      -0.057760000000000      7.922360000000000      1.623350000000000
C       1.417710000000000      6.863830000000000      3.343270000000000
H      -2.058490000000000      7.270510000000000      3.369660000000000
H      -1.107060000000000      5.787920000000000      2.984030000000000
H      -1.046230000000000      6.484320000000000      4.636640000000000
H       0.782440000000000      8.548740000000000      1.256850000000000
H      -0.064000000000000      6.983590000000000      1.026620000000000
H      -1.005020000000000      8.465630000000001      1.422260000000000
H       2.273950000000000      7.501730000000000      3.032740000000000
H       1.553800000000000      6.589160000000000      4.409620000000000
H       1.443080000000000      5.929670000000000      2.745530000000000

-C 0
6-31g(d,p)
****
-H 0
6-31g(d,p)
****
-Mg 0
6-31g(d,p)
****
-N 0
6-31+g(d,p)
****
-Na 0
6-31g(d,p)
****
-O 0
6-31+g(d,p)
****


