%chk=lowest10_c1_a2_speciation0_speciationDFT2_speciationDFT38_rank05_E181.01.chk
%nprocshared=20
%mem=40GB
#p opt=loose PM7/gen scf=xqc 

lowest10_c1_a2_speciation0_speciationDFT2_speciationDFT38_rank05_E181.01 DFT input

0 1
Mg      0.449750000000000      0.141880000000000     -0.896220000000000
C      -2.244490000000000     -1.129830000000000      0.501580000000000
C      -0.349190000000000     -2.521630000000000      0.949130000000000
O      -0.910010000000000     -1.480300000000000      0.179600000000000
C      -2.524380000000000     -0.903290000000000      1.989080000000000
C      -1.003020000000000     -3.865740000000000      0.669540000000000
H      -2.430910000000000     -0.158920000000000      0.002190000000000
H      -2.959810000000000     -1.851630000000000      0.058340000000000
H       0.713330000000000     -2.601310000000000      0.649670000000000
H      -0.317350000000000     -2.277850000000000      2.029260000000000
H      -0.441380000000000     -4.659600000000000      1.203920000000000
H      -0.985980000000000     -4.078270000000000     -0.419480000000000
H      -2.051020000000000     -3.862250000000000      1.027330000000000
H      -1.797510000000000     -0.195490000000000      2.420180000000000
H      -2.489100000000000     -1.860540000000000      2.546880000000000
H      -3.534740000000000     -0.464470000000000      2.111020000000000
H       0.464040000000000     -1.365500000000000     -3.094350000000000
C       2.595170000000000     -1.200450000000000     -2.601470000000000
C       1.185750000000000     -0.600680000000000     -2.743640000000000
C       2.733420000000000     -2.321370000000000     -1.552060000000000
H       2.909300000000000     -1.590560000000000     -3.591760000000000
H       3.292380000000000     -0.387440000000000     -2.305860000000000
H       3.791150000000000     -2.669500000000000     -1.550450000000000
H       2.517590000000000     -1.918410000000000     -0.542150000000000
C       1.843220000000000     -3.533710000000000     -1.824810000000000
H       1.201010000000000      0.245100000000000     -3.457300000000000
H       0.774790000000000     -3.246920000000000     -1.789130000000000
H       2.072430000000000     -3.971310000000000     -2.818350000000000
H       2.017710000000000     -4.308850000000000     -1.046420000000000
C       1.692700000000000     -0.375630000000000      2.802420000000000
C       2.539080000000000     -0.037090000000000      1.771580000000000
C       1.930610000000000      0.977220000000000      1.053250000000000
C       0.741410000000000      1.228720000000000      1.611430000000000
N       0.541310000000000      0.421700000000000      2.749140000000000
C      -0.287090000000000      2.199140000000000      1.094210000000000
N      -0.675520000000000      1.801760000000000     -0.264590000000000
C      -1.567720000000000      2.691590000000000     -1.046160000000000
H       3.491340000000000     -0.504510000000000      1.559870000000000
H       1.866980000000000     -1.147600000000000      3.538370000000000
H       2.324800000000000      1.445140000000000      0.158920000000000
H       0.141920000000000      3.218150000000000      1.111440000000000
H      -1.174560000000000      2.153480000000000      1.759140000000000
C      -0.853540000000000      4.013940000000000     -1.387650000000000
C      -1.946740000000000      1.982180000000000     -2.356580000000000
C      -2.867120000000000      2.998470000000000     -0.262450000000000
H       0.066450000000000      3.817310000000000     -1.976580000000000
H      -1.521590000000000      4.675920000000000     -1.981350000000000
H      -0.576820000000000      4.574830000000000     -0.472290000000000
H      -2.498560000000000      1.040680000000000     -2.151480000000000
H      -2.597280000000000      2.634020000000000     -2.982400000000000
H      -1.035780000000000      1.735710000000000     -2.941210000000000
H      -3.404010000000000      2.060550000000000     -0.005470000000000
H      -2.655540000000000      3.549750000000000      0.677610000000000
H      -3.553250000000000      3.631310000000000     -0.867390000000000
Na     -3.812990000000000     14.257030000000000      7.388260000000000
C      -1.786910000000000     11.816990000000001      6.540080000000000
C      -0.610480000000000     13.542850000000000      7.512140000000000
O      -1.559590000000000     13.210170000000000      6.521670000000000
C      -2.803620000000000     11.463360000000000      5.464280000000000
C      -0.380280000000000     15.047790000000001      7.498500000000000
H      -0.848800000000000     11.259169999999999      6.317030000000000
H      -2.207270000000000     11.499060000000000      7.520980000000000
H      -0.981670000000000     13.265950000000000      8.525230000000001
H       0.365440000000000     13.047639999999999      7.305060000000000
H      -1.330040000000000     15.582459999999999      7.712860000000000
H       0.367060000000000     15.320259999999999      8.273750000000000
H       0.000480000000000     15.368020000000000      6.505380000000000
H      -2.420230000000000     11.757849999999999      4.464140000000000
H      -2.990030000000000     10.368359999999999      5.469950000000000
H      -3.761650000000000     11.992300000000000      5.655290000000000
Na     -0.268840000000000     13.619100000000000      4.262210000000000
Mg     -2.855420000000000      6.815880000000000      6.655440000000000
H      -4.273290000000000      4.117400000000000      6.247780000000000
C      -3.231450000000000      4.324340000000000      4.325860000000000
C      -4.062000000000000      4.883140000000000      5.473950000000000
C      -1.820710000000000      3.883810000000000      4.749570000000000
H      -3.779360000000000      3.473500000000000      3.870020000000000
H      -3.119870000000000      5.122330000000000      3.560090000000000
H      -1.303270000000000      3.493350000000000      3.847290000000000
H      -1.244640000000000      4.755870000000000      5.125370000000000
C      -1.815040000000000      2.792680000000000      5.819000000000000
H      -5.017780000000000      5.307120000000000      5.104000000000000
H      -2.234040000000000      3.175980000000000      6.772680000000000
H      -2.401690000000000      1.913340000000000      5.480350000000000
H      -0.769170000000000      2.473270000000000      6.012970000000000
C       0.023460000000000      7.434070000000000      5.469010000000000
C       1.109360000000000      8.118539999999999      5.991940000000000
C       0.744350000000000      8.538970000000001      7.261560000000000
C      -0.535690000000000      8.078120000000000      7.467830000000000
N      -0.964020000000000      7.425800000000000      6.373530000000000
C      -1.401520000000000      8.249269999999999      8.699500000000000
N      -2.600480000000000      7.391290000000000      8.592140000000001
C      -3.609850000000000      7.359580000000000      9.665030000000000
H       2.056980000000000      8.294960000000000      5.503610000000000
H      -0.034240000000000      6.977610000000000      4.487660000000000
H       1.348120000000000      9.104680000000000      7.959640000000000
H      -1.678590000000000      9.321009999999999      8.773180000000000
H      -0.812710000000000      7.944770000000000      9.585860000000000
C      -4.168260000000000      8.767210000000000      9.941420000000001
C      -4.765210000000000      6.442170000000000      9.224140000000000
C      -2.984140000000000      6.774160000000000     10.946149999999999
H      -4.619400000000000      9.192580000000000      9.019590000000001
H      -4.948780000000000      8.725960000000001     10.731809999999999
H      -3.370390000000000      9.450880000000000     10.297110000000000
H      -4.394830000000000      5.416410000000000      9.009219999999999
H      -5.536140000000000      6.371540000000000     10.023759999999999
H      -5.252630000000000      6.835530000000000      8.306490000000000
H      -2.586490000000000      5.754670000000000     10.746600000000001
H      -2.151900000000000      7.407250000000000     11.314990000000000
H      -3.738680000000000      6.703950000000000     11.758279999999999

-C 0
6-31g(d,p)
****
-H 0
6-31g(d,p)
****
-Mg 0
6-31g(d,p)
****
-N 0
6-31+g(d,p)
****
-Na 0
6-31g(d,p)
****
-O 0
6-31+g(d,p)
****


