%chk=lowest10_c1_a2_speciation0_speciationDFT1_speciationDFT2_rank04_E180.54.chk
%nprocshared=20
%mem=40GB
#p opt=loose PM7/gen scf=xqc 

lowest10_c1_a2_speciation0_speciationDFT1_speciationDFT2_rank04_E180.54 DFT input

0 1
Mg     -0.837110000000000     -0.334220000000000      0.171490000000000
H      -0.945350000000000     -2.946970000000000     -1.326850000000000
C      -2.387150000000000     -1.738200000000000     -2.473720000000000
C      -1.773650000000000     -2.226750000000000     -1.169000000000000
C      -1.419730000000000     -0.917440000000000     -3.344370000000000
H      -2.760320000000000     -2.618150000000000     -3.036340000000000
H      -3.250030000000000     -1.082880000000000     -2.225340000000000
H      -1.962510000000000     -0.630700000000000     -4.271490000000000
H      -1.124900000000000      0.015660000000000     -2.818700000000000
C      -0.154510000000000     -1.676760000000000     -3.738790000000000
H      -2.538040000000000     -2.661280000000000     -0.492660000000000
H       0.466710000000000     -1.891390000000000     -2.844390000000000
H      -0.415860000000000     -2.626700000000000     -4.249300000000000
H       0.450560000000000     -1.052020000000000     -4.430050000000000
C      -1.104140000000000      2.506530000000000     -1.226130000000000
C      -0.448390000000000      3.704660000000000     -0.992040000000000
C       0.449910000000000      3.476260000000000      0.038780000000000
C       0.316900000000000      2.150500000000000      0.378640000000000
N      -0.626570000000000      1.578220000000000     -0.384120000000000
C       1.064940000000000      1.389830000000000      1.455350000000000
N       0.815920000000000     -0.059460000000000      1.316990000000000
C       1.462340000000000     -1.023880000000000      2.225810000000000
H      -0.609390000000000      4.640730000000000     -1.507680000000000
H      -1.881800000000000      2.334160000000000     -1.960820000000000
H       1.129410000000000      4.189500000000000      0.485170000000000
H       0.704120000000000      1.761490000000000      2.436700000000000
H       2.145510000000000      1.590060000000000      1.339380000000000
C       1.149440000000000     -0.695610000000000      3.697230000000000
C       0.935880000000000     -2.436030000000000      1.908790000000000
C       2.985020000000000     -1.005710000000000      1.989910000000000
H       0.052120000000000     -0.703260000000000      3.871470000000000
H       1.620020000000000     -1.444790000000000      4.370250000000000
H       1.549730000000000      0.300290000000000      3.977510000000000
H       1.136200000000000     -2.704510000000000      0.849220000000000
H       1.432600000000000     -3.192660000000000      2.557250000000000
H      -0.159390000000000     -2.496320000000000      2.082210000000000
H       3.210460000000000     -1.256430000000000      0.929900000000000
H       3.416190000000000     -0.008570000000000      2.210420000000000
H       3.496690000000000     -1.741930000000000      2.644670000000000
Na    -16.001639999999998     -0.239890000000000      6.856610000000000
C     -13.719790000000000     -1.825370000000000      5.115080000000000
C     -12.767650000000000     -0.819220000000000      6.955240000000000
O     -13.605710000000000     -0.618190000000000      5.837390000000000
C     -14.613070000000000     -1.600010000000000      3.903710000000000
C     -12.661080000000000      0.481450000000000      7.738520000000000
H     -12.725160000000001     -2.159520000000000      4.744520000000000
H     -14.188960000000000     -2.617970000000000      5.741350000000000
H     -13.194360000000000     -1.590710000000000      7.636230000000000
H     -11.741140000000000     -1.107540000000000      6.632480000000000
H     -13.665979999999999      0.800240000000000      8.088640000000000
H     -12.003579999999999      0.335100000000000      8.621620000000000
H     -12.229390000000000      1.279400000000000      7.097690000000000
H     -14.174659999999999     -0.820390000000000      3.245110000000000
H     -14.708620000000000     -2.544540000000000      3.327180000000000
H     -15.623870000000000     -1.274520000000000      4.229480000000000
Na    -12.163110000000000      0.926760000000000      4.262030000000000
Mg     -6.087010000000000     -1.781270000000000      4.621870000000000
H      -3.038440000000000     -2.155530000000000      4.282890000000000
C      -3.776610000000000     -4.063540000000000      3.511430000000000
C      -3.815180000000000     -2.916330000000000      4.503990000000000
C      -2.433230000000000     -4.780570000000000      3.608820000000000
H      -4.604870000000000     -4.769410000000000      3.739710000000000
H      -3.927070000000000     -3.659120000000000      2.486420000000000
H      -1.615950000000000     -4.059980000000000      3.390880000000000
H      -2.300180000000000     -5.173310000000000      4.640620000000000
C      -2.351880000000000     -5.936510000000000      2.622900000000000
H      -3.732800000000000     -3.280290000000000      5.549610000000000
H      -3.149230000000000     -6.679950000000000      2.836140000000000
H      -2.464320000000000     -5.562620000000000      1.583000000000000
H      -1.363090000000000     -6.430200000000000      2.723280000000000
C      -5.977010000000000      1.206130000000000      5.678120000000000
C      -6.926590000000000      2.214430000000000      5.691830000000000
C      -8.071500000000000      1.699610000000000      5.101970000000000
C      -7.767370000000000      0.405800000000000      4.740290000000000
N      -6.509380000000000      0.117240000000000      5.100960000000000
C      -8.668730000000000     -0.601930000000000      4.048940000000000
N      -7.892250000000000     -1.808080000000000      3.690140000000000
C      -8.518240000000000     -2.940970000000000      2.986100000000000
H      -6.801580000000000      3.212190000000000      6.089930000000000
H      -4.968760000000000      1.266880000000000      6.067810000000000
H      -9.011360000000000      2.210990000000000      4.946520000000000
H      -9.071420000000000     -0.135820000000000      3.129810000000000
H      -9.493830000000001     -0.854380000000000      4.746030000000000
C      -8.967620000000000     -2.496190000000000      1.581480000000000
C      -7.476320000000000     -4.063780000000000      2.831820000000000
C      -9.716790000000000     -3.482510000000000      3.783990000000000
H      -8.097320000000000     -2.113750000000000      1.004000000000000
H      -9.413690000000001     -3.346510000000000      1.022980000000000
H      -9.730230000000001     -1.693380000000000      1.637660000000000
H      -7.130950000000000     -4.419670000000000      3.825880000000000
H      -7.911990000000000     -4.930370000000000      2.285970000000000
H      -6.593110000000000     -3.705990000000000      2.260340000000000
H      -9.393269999999999     -3.799480000000000      4.798780000000000
H     -10.505200000000000     -2.710440000000000      3.885930000000000
H     -10.167090000000000     -4.356410000000000      3.265930000000000

-C 0
6-31g(d,p)
****
-H 0
6-31g(d,p)
****
-Mg 0
6-31g(d,p)
****
-N 0
6-31+g(d,p)
****
-Na 0
6-31g(d,p)
****
-O 0
6-31+g(d,p)
****


