%chk=lowest10_c1_a2_speciation0_speciationDFT37b_speciationDFT37b_rank07_E146.61.chk
%nprocshared=20
%mem=40GB
#p opt=loose PM7/gen scf=xqc 

lowest10_c1_a2_speciation0_speciationDFT37b_speciationDFT37b_rank07_E146.61 DFT input

0 1
Mg      0.347810000000000      0.239520000000000     -0.315180000000000
C      -0.935500000000000     -1.804090000000000     -2.406410000000000
C      -1.076570000000000      0.441760000000000     -3.195440000000000
O      -1.180370000000000     -0.444650000000000     -2.101430000000000
C       0.457130000000000     -2.078850000000000     -2.972980000000000
C      -2.235490000000000      0.280760000000000     -4.165730000000000
H      -0.992290000000000     -2.343300000000000     -1.443430000000000
H      -1.741280000000000     -2.241880000000000     -3.028280000000000
H      -1.131450000000000      1.468540000000000     -2.772130000000000
H      -0.092590000000000      0.389390000000000     -3.705100000000000
H      -3.194680000000000      0.323970000000000     -3.608030000000000
H      -2.208430000000000      1.101050000000000     -4.912340000000000
H      -2.154920000000000     -0.687970000000000     -4.698320000000000
H       1.230210000000000     -1.557910000000000     -2.374090000000000
H       0.655760000000000     -3.170600000000000     -2.941100000000000
H       0.520990000000000     -1.746760000000000     -4.027870000000000
H       2.849910000000000      0.571120000000000     -0.938090000000000
C       1.982630000000000      2.569480000000000     -0.851680000000000
C       1.951000000000000      1.118450000000000     -1.285500000000000
C       1.965910000000000      2.675600000000000      0.677470000000000
H       2.902190000000000      3.023810000000000     -1.270820000000000
H       1.089870000000000      3.097020000000000     -1.256210000000000
H       0.991390000000000      2.311460000000000      1.065030000000000
H       2.770260000000000      2.050300000000000      1.119030000000000
C       2.180760000000000      4.116990000000000      1.121240000000000
H       1.848460000000000      1.027330000000000     -2.385340000000000
H       3.179180000000000      4.462480000000000      0.777370000000000
H       1.397270000000000      4.780710000000000      0.698480000000000
H       2.147340000000000      4.178040000000000      2.229240000000000
C      -1.340970000000000      2.136880000000000      2.556910000000000
C      -1.803530000000000      2.180470000000000      1.262910000000000
C      -1.901580000000000      0.875970000000000      0.811570000000000
C      -1.487770000000000      0.065250000000000      1.796360000000000
N      -1.147430000000000      0.799430000000000      2.944080000000000
C      -1.380110000000000     -1.437780000000000      1.726520000000000
N      -0.279960000000000     -1.861400000000000      0.844640000000000
C       0.995330000000000     -2.287720000000000      1.473430000000000
H      -2.027240000000000      3.080820000000000      0.702330000000000
H      -1.139870000000000      2.989480000000000      3.186580000000000
H      -2.233720000000000      0.578750000000000     -0.168420000000000
H      -2.335020000000000     -1.848840000000000      1.335520000000000
H      -1.252730000000000     -1.826470000000000      2.750010000000000
C       0.782520000000000     -3.541610000000000      2.344000000000000
C       1.973130000000000     -2.657010000000000      0.340220000000000
C       1.634820000000000     -1.158320000000000      2.308660000000000
H       0.279450000000000     -4.334990000000000      1.751380000000000
H       1.758280000000000     -3.932660000000000      2.704600000000000
H       0.176250000000000     -3.328520000000000      3.244790000000000
H       2.196680000000000     -1.771400000000000     -0.289230000000000
H       2.939500000000000     -3.029870000000000      0.746220000000000
H       1.540160000000000     -3.446060000000000     -0.311630000000000
H       1.892520000000000     -0.287660000000000      1.669090000000000
H       0.956680000000000     -0.817320000000000      3.114020000000000
H       2.571660000000000     -1.516140000000000      2.788750000000000
Na     -0.378920000000000      4.457290000000000     10.614690000000000
C       2.741730000000000      3.477600000000000     10.921329999999999
C       1.324330000000000      1.980280000000000     11.947559999999999
O       1.669580000000000      3.343380000000000     11.829820000000000
C       3.119360000000000      4.948100000000000     10.812450000000000
C       0.161380000000000      1.840250000000000     12.918790000000000
H       3.638420000000000      2.921750000000000     11.279769999999999
H       2.445570000000000      3.126030000000000      9.906720000000000
H       0.999470000000000      1.566970000000000     10.965260000000001
H       2.176240000000000      1.395440000000000     12.358490000000000
H      -0.718140000000000      2.407760000000000     12.547390000000000
H      -0.117110000000000      0.769470000000000     13.017740000000000
H       0.449850000000000      2.229750000000000     13.918260000000000
H       3.432460000000000      5.336930000000000     11.804779999999999
H       3.961040000000000      5.068180000000000     10.097920000000000
H       2.252260000000000      5.539420000000000     10.448499999999999
Na      2.757360000000000      3.901980000000000     14.170040000000000
Mg      4.730800000000000     -2.127860000000000     10.118690000000001
C       4.993640000000000     -0.850000000000000      7.172260000000000
C       3.048710000000000     -2.213950000000000      7.360700000000000
O       4.419160000000000     -2.047200000000000      7.664220000000000
C       4.348490000000000      0.426060000000000      7.715880000000000
C       2.820300000000000     -2.521140000000000      5.887150000000000
H       6.042620000000000     -0.846320000000000      7.527310000000000
H       5.059650000000000     -0.847390000000000      6.065970000000000
H       2.699540000000000     -3.093120000000000      7.944470000000000
H       2.423550000000000     -1.368610000000000      7.712890000000000
H       3.447110000000000     -3.386070000000000      5.584080000000000
H       1.751400000000000     -2.770340000000000      5.723450000000000
H       3.073570000000000     -1.639760000000000      5.265630000000000
H       4.251410000000000      0.371550000000000      8.817750000000000
H       4.984050000000000      1.297490000000000      7.453370000000000
H       3.349030000000000      0.587620000000000      7.266620000000000
H       3.302750000000000     -0.534850000000000     11.636559999999999
C       2.344870000000000     -2.482830000000000     11.763350000000001
C       2.982500000000000     -1.359730000000000     10.970400000000000
C       3.360430000000000     -3.088300000000000     12.738099999999999
H       1.472690000000000     -2.066320000000000     12.307740000000001
H       1.999320000000000     -3.276750000000000     11.064489999999999
H       4.180160000000000     -3.574320000000000     12.166620000000000
H       3.802520000000000     -2.294130000000000     13.376760000000001
C       2.697170000000000     -4.119140000000000     13.642070000000000
H       2.291760000000000     -0.974970000000000     10.192580000000000
H       1.909490000000000     -3.625710000000000     14.250690000000001
H       2.240690000000000     -4.933160000000000     13.040250000000000
H       3.453280000000000     -4.556760000000000     14.327140000000000
C       6.079410000000000     -5.554680000000000     11.388730000000001
C       5.290930000000000     -5.426480000000000     10.266090000000000
C       5.852370000000000     -4.433330000000000      9.484209999999999
C       6.931820000000000     -3.960880000000000     10.111409999999999
N       7.148630000000000     -4.652820000000000     11.324809999999999
C       7.833230000000000     -2.856620000000000      9.633520000000001
N       7.151640000000000     -1.548570000000000      9.668460000000000
C       7.464810000000000     -0.647590000000000     10.805550000000000
H       4.395770000000000     -5.995140000000000     10.055300000000001
H       5.905380000000000     -6.240700000000000     12.206460000000000
H       5.469610000000000     -4.095910000000000      8.530799999999999
H       8.142020000000000     -3.075170000000000      8.588770000000000
H       8.746330000000000     -2.857680000000000     10.249580000000000
C       8.945790000000001     -0.216140000000000     10.771630000000000
C       6.602570000000000      0.621030000000000     10.653680000000000
C       7.121670000000000     -1.294840000000000     12.164249999999999
H       9.190510000000000      0.228750000000000      9.783510000000000
H       9.147270000000001      0.540780000000000     11.559670000000001
H       9.637169999999999     -1.059370000000000     10.959709999999999
H       5.523900000000000      0.371960000000000     10.714810000000000
H       6.821720000000000      1.352580000000000     11.462880000000000
H       6.795960000000000      1.114520000000000      9.676900000000000
H       6.040170000000000     -1.541680000000000     12.220960000000000
H       7.704840000000000     -2.220780000000000     12.332120000000000
H       7.356350000000000     -0.596130000000000     12.996779999999999

-C 0
6-31g(d,p)
****
-H 0
6-31g(d,p)
****
-Mg 0
6-31g(d,p)
****
-N 0
6-31+g(d,p)
****
-Na 0
6-31g(d,p)
****
-O 0
6-31+g(d,p)
****


