%chk=lowest10_c1_a2_speciation0_speciationDFT0_speciationDFT36_rank10_E181.03.chk
%nprocshared=20
%mem=40GB
#p opt=loose PM7/gen scf=xqc 

lowest10_c1_a2_speciation0_speciationDFT0_speciationDFT36_rank10_E181.03 DFT input

0 1
Mg     -0.293200000000000      0.405740000000000     -0.620200000000000
C       0.967920000000000      0.050380000000000      2.902350000000000
C      -1.336790000000000      0.100780000000000      2.963580000000000
O      -0.187450000000000      0.658670000000000      2.358680000000000
C       2.187440000000000      0.908560000000000      2.602980000000000
C      -2.588620000000000      0.683890000000000      2.321230000000000
H       0.908040000000000     -0.039670000000000      4.008690000000000
H       1.119110000000000     -0.954910000000000      2.457650000000000
H      -1.360720000000000     -1.002310000000000      2.840450000000000
H      -1.365580000000000      0.345710000000000      4.046370000000000
H      -2.624070000000000      0.440090000000000      1.240220000000000
H      -3.491880000000000      0.259900000000000      2.808820000000000
H      -2.598600000000000      1.786930000000000      2.443530000000000
H       2.061110000000000      1.920750000000000      3.037540000000000
H       3.096530000000000      0.431960000000000      3.024850000000000
H       2.332540000000000      1.017850000000000      1.519120000000000
H      -2.280210000000000      2.785730000000000      0.115700000000000
C      -2.432170000000000      2.026380000000000     -1.948630000000000
C      -1.635820000000000      2.489690000000000     -0.734690000000000
C      -3.342510000000000      0.837100000000000     -1.612420000000000
H      -3.041740000000000      2.883340000000000     -2.299340000000000
H      -1.726380000000000      1.725660000000000     -2.755010000000000
H      -2.732170000000000     -0.045810000000000     -1.319180000000000
H      -4.010770000000000      1.103190000000000     -0.765980000000000
C      -4.210850000000000      0.464660000000000     -2.812050000000000
H      -0.920550000000000      3.294520000000000     -1.000350000000000
H      -4.842060000000000      1.331080000000000     -3.104670000000000
H      -3.579150000000000      0.166800000000000     -3.675720000000000
H      -4.878140000000000     -0.382920000000000     -2.548030000000000
C      -1.506010000000000     -2.244860000000000      0.608870000000000
C      -0.905950000000000     -3.444940000000000      0.946770000000000
C       0.435560000000000     -3.329180000000000      0.612870000000000
C       0.600150000000000     -2.062780000000000      0.101490000000000
N      -0.574570000000000     -1.418810000000000      0.115450000000000
C       1.866790000000000     -1.427680000000000     -0.444440000000000
N       1.700470000000000      0.036100000000000     -0.600300000000000
C       2.637420000000000      0.782360000000000     -1.464050000000000
H      -1.391760000000000     -4.304870000000000      1.384130000000000
H      -2.553180000000000     -1.992170000000000      0.734240000000000
H       1.206090000000000     -4.077070000000000      0.737440000000000
H       2.703510000000000     -1.610940000000000      0.259230000000000
H       2.074880000000000     -1.918300000000000     -1.415140000000000
C       2.384850000000000      0.473600000000000     -2.950490000000000
C       2.417030000000000      2.292380000000000     -1.238590000000000
C       4.092000000000000      0.440400000000000     -1.084480000000000
H       1.352970000000000      0.768200000000000     -3.239670000000000
H       3.100800000000000      1.040580000000000     -3.585320000000000
H       2.521590000000000     -0.602430000000000     -3.173130000000000
H       2.598360000000000      2.574650000000000     -0.180400000000000
H       3.109100000000000      2.890970000000000     -1.871600000000000
H       1.377460000000000      2.580920000000000     -1.499330000000000
H       4.266610000000000      0.651840000000000     -0.006880000000000
H       4.308390000000000     -0.631970000000000     -1.269980000000000
H       4.809770000000000      1.041850000000000     -1.681060000000000
Na      4.496930000000000    -10.739820000000000      6.246910000000000
C       3.603280000000000    -13.806900000000001      6.873150000000000
C       2.161710000000000    -12.327550000000000      7.893850000000000
O       3.518360000000000    -12.666930000000001      7.701420000000000
C       5.067740000000000    -14.171989999999999      6.674430000000000
C       2.076820000000000    -11.089860000000000      8.775869999999999
H       3.097580000000000    -14.679020000000000      7.346980000000000
H       3.165890000000000    -13.599600000000001      5.869980000000000
H       1.671730000000000    -12.085670000000000      6.923130000000000
H       1.619200000000000    -13.151640000000000      8.411000000000000
H       2.596890000000000    -10.236969999999999      8.289949999999999
H       1.012520000000000    -10.815960000000000      8.936660000000000
H       2.548520000000000    -11.290630000000000      9.761469999999999
H       5.542030000000000    -14.397919999999999      7.653110000000000
H       5.146170000000000    -15.068049999999999      6.022740000000000
H       5.610030000000000    -13.330310000000001      6.193550000000000
Na      4.286370000000000    -13.552099999999999     10.063190000000001
Mg      2.989500000000000     -5.916340000000000      7.049200000000000
H       1.936640000000000     -3.646750000000000      8.971220000000001
C       2.537950000000000     -2.420030000000000      7.258070000000000
C       2.705690000000000     -3.621910000000000      8.172779999999999
C       1.167300000000000     -2.380770000000000      6.568360000000000
H       2.657670000000000     -1.504440000000000      7.874030000000000
H       3.338190000000000     -2.430260000000000      6.487730000000000
H       0.357070000000000     -2.360150000000000      7.329240000000000
H       1.117080000000000     -1.441280000000000      5.980910000000000
C       0.934320000000000     -3.549430000000000      5.608400000000000
H       3.722210000000000     -3.628390000000000      8.622080000000000
H       0.885550000000000     -4.510570000000000      6.159110000000000
H      -0.032460000000000     -3.400650000000000      5.080440000000000
H       1.743100000000000     -3.599770000000000      4.848350000000000
C       0.282700000000000     -7.576860000000000      6.935610000000000
C      -0.125360000000000     -8.617310000000000      6.116920000000000
C       0.912630000000000     -8.866149999999999      5.231860000000000
C       1.899470000000000     -7.954370000000000      5.534430000000000
N       1.516840000000000     -7.195310000000000      6.570290000000000
C       3.244860000000000     -7.781020000000000      4.855820000000000
N       3.882120000000000     -6.532860000000000      5.326030000000000
C       5.183940000000000     -6.097210000000000      4.790250000000000
H      -1.071440000000000     -9.139400000000000      6.160370000000000
H      -0.285200000000000     -7.134330000000000      7.743830000000000
H       0.938730000000000     -9.613540000000000      4.450790000000000
H       3.867710000000000     -8.664640000000000      5.100320000000000
H       3.079410000000000     -7.720250000000000      3.763990000000000
C       5.044700000000000     -5.772480000000000      3.289840000000000
C       5.613070000000000     -4.815430000000000      5.526440000000000
C       6.257600000000000     -7.178930000000000      5.003790000000000
H       4.272040000000000     -4.986640000000000      3.137980000000000
H       6.006870000000000     -5.404030000000000      2.874760000000000
H       4.750520000000000     -6.668460000000000      2.706930000000000
H       5.732130000000000     -5.005720000000000      6.614510000000000
H       6.583760000000000     -4.442270000000000      5.130080000000000
H       4.855600000000000     -4.014480000000000      5.392330000000000
H       6.360230000000000     -7.413950000000000      6.084780000000000
H       5.999440000000000     -8.110139999999999      4.458850000000000
H       7.241350000000000     -6.829530000000000      4.622100000000000

-C 0
6-31g(d,p)
****
-H 0
6-31g(d,p)
****
-Mg 0
6-31g(d,p)
****
-N 0
6-31+g(d,p)
****
-Na 0
6-31g(d,p)
****
-O 0
6-31+g(d,p)
****


