%chk=lowest10_c1_a2_speciation0_speciationDFT37b_speciationDFT37b_rank03_E146.41.chk
%nprocshared=20
%mem=40GB
#p opt=loose PM7/gen scf=xqc 

lowest10_c1_a2_speciation0_speciationDFT37b_speciationDFT37b_rank03_E146.41 DFT input

0 1
Mg      0.347750000000000      0.239690000000000     -0.315150000000000
C      -0.935500000000000     -1.804070000000000     -2.406370000000000
C      -1.076580000000000      0.441760000000000     -3.195420000000000
O      -1.180390000000000     -0.444630000000000     -2.101390000000000
C       0.457120000000000     -2.078840000000000     -2.972970000000000
C      -2.235490000000000      0.280760000000000     -4.165720000000000
H      -0.992270000000000     -2.343290000000000     -1.443380000000000
H      -1.741280000000000     -2.241870000000000     -3.028240000000000
H      -1.131450000000000      1.468550000000000     -2.772120000000000
H      -0.092600000000000      0.389390000000000     -3.705070000000000
H      -3.194680000000000      0.323970000000000     -3.608030000000000
H      -2.208430000000000      1.101050000000000     -4.912330000000000
H      -2.154920000000000     -0.687970000000000     -4.698300000000000
H       1.230210000000000     -1.557910000000000     -2.374080000000000
H       0.655750000000000     -3.170590000000000     -2.941090000000000
H       0.520970000000000     -1.746750000000000     -4.027850000000000
H       2.849910000000000      0.571110000000000     -0.938040000000000
C       1.982640000000000      2.569470000000000     -0.851580000000000
C       1.951000000000000      1.118460000000000     -1.285440000000000
C       1.965910000000000      2.675540000000000      0.677590000000000
H       2.902200000000000      3.023810000000000     -1.270720000000000
H       1.089880000000000      3.097010000000000     -1.256120000000000
H       0.991390000000000      2.311410000000000      1.065140000000000
H       2.770250000000000      2.050240000000000      1.119150000000000
C       2.180740000000000      4.116940000000000      1.121370000000000
H       1.848460000000000      1.027360000000000     -2.385290000000000
H       3.179160000000000      4.462430000000000      0.777490000000000
H       1.397260000000000      4.780650000000000      0.698590000000000
H       2.147320000000000      4.177980000000000      2.229370000000000
C      -1.340740000000000      2.136850000000000      2.557530000000000
C      -1.803330000000000      2.180500000000000      1.263490000000000
C      -1.901470000000000      0.876060000000000      0.812110000000000
C      -1.487730000000000      0.065340000000000      1.796910000000000
N      -1.147280000000000      0.799390000000000      2.944710000000000
C      -1.380170000000000     -1.437580000000000      1.726820000000000
N      -0.280070000000000     -1.860860000000000      0.844760000000000
C       0.995130000000000     -2.287280000000000      1.473540000000000
H      -2.027020000000000      3.080840000000000      0.702840000000000
H      -1.139590000000000      2.989420000000000      3.187180000000000
H      -2.233570000000000      0.578850000000000     -0.167920000000000
H      -2.335070000000000     -1.848620000000000      1.335760000000000
H      -1.252740000000000     -1.826340000000000      2.750280000000000
C       0.781970000000000     -3.541530000000000      2.343400000000000
C       1.973030000000000     -2.656510000000000      0.340300000000000
C       1.634540000000000     -1.157980000000000      2.309400000000000
H       0.278790000000000     -4.334610000000000      1.750480000000000
H       1.757680000000000     -3.933050000000000      2.703480000000000
H       0.175690000000000     -3.328710000000000      3.244270000000000
H       2.196690000000000     -1.770940000000000     -0.289110000000000
H       2.939360000000000     -3.029520000000000      0.746270000000000
H       1.540080000000000     -3.445560000000000     -0.311610000000000
H       1.892630000000000     -0.287330000000000      1.669930000000000
H       0.956380000000000     -0.816720000000000      3.114700000000000
H       2.571130000000000     -1.515880000000000      2.789860000000000
Na     -0.347460000000000     -7.610380000000000     10.578290000000001
C      -1.059340000000000     -4.417950000000000     10.884890000000000
C       0.946060000000000     -4.896810000000000     11.911140000000000
O      -0.407040000000000     -5.279360000000000     11.793390000000000
C      -2.521650000000000     -4.826170000000000     10.776009999999999
C       1.648810000000000     -5.833950000000000     12.882370000000000
H      -1.026310000000000     -3.363480000000000     11.243340000000000
H      -0.606800000000000     -4.498640000000000      9.870290000000001
H       1.466440000000000     -4.971490000000000     10.928839999999999
H       1.026610000000000     -3.866610000000000     12.322070000000000
H       1.597090000000000     -6.879390000000000     12.510970000000000
H       2.715380000000000     -5.539740000000000     12.981330000000000
H       1.167260000000000     -5.778880000000000     13.881840000000000
H      -3.014940000000000     -4.749430000000000     11.768340000000000
H      -3.046480000000000     -4.157290000000000     10.061470000000000
H      -2.600200000000000     -5.872760000000000     10.412060000000000
Na     -1.434680000000000     -4.616630000000000     14.133620000000001
Mg      2.800590000000000      0.107310000000000     10.082129999999999
C       1.561080000000000     -0.303510000000000      7.134000000000000
C       3.714650000000000     -1.305090000000000      7.325060000000000
O       2.884510000000000     -0.201820000000000      7.627430000000000
C       0.778920000000000     -1.500390000000000      7.677670000000000
C       4.095120000000000     -1.349400000000000      5.852010000000000
H       1.033030000000000      0.602940000000000      7.488810000000000
H       1.526450000000000     -0.247970000000000      6.027470000000000
H       4.650570000000000     -1.167380000000000      7.908900000000000
H       3.295610000000000     -2.269380000000000      7.677310000000000
H       4.529800000000000     -0.373640000000000      5.548890000000000
H       4.846470000000000     -2.149730000000000      5.690170000000000
H       3.205930000000000     -1.572610000000000      5.230050000000000
H       0.874880000000000     -1.557030000000000      8.779640000000001
H      -0.293500000000000     -1.386020000000000      7.415160000000000
H       1.139160000000000     -2.446670000000000      7.228620000000000
H       2.134990000000000     -1.925850000000000     11.600140000000000
C       4.300950000000000     -1.781430000000000     11.726929999999999
C       3.009480000000000     -1.790780000000000     10.933970000000000
C       4.317530000000000     -0.599200000000000     12.701680000000000
H       4.376320000000000     -2.745020000000000     12.271310000000000
H       5.161280000000000     -1.683740000000000     11.028070000000000
H       4.328580000000000      0.353720000000000     12.130200000000000
H       3.408720000000000     -0.613420000000000     13.340339999999999
C       5.541910000000000     -0.658190000000000     13.605639999999999
H       3.021630000000000     -2.581380000000000     10.156180000000001
H       5.508410000000000     -1.587060000000000     14.214259999999999
H       6.475110000000000     -0.646500000000000     13.003819999999999
H       5.542840000000000      0.215430000000000     14.290720000000000
C       5.093920000000000      2.988680000000000     11.352220000000001
C       5.377160000000000      2.241720000000000     10.229590000000000
C       4.236370000000000      2.231360000000000      9.447670000000000
C       3.287470000000000      2.929960000000000     10.074830000000000
N       3.778270000000000      3.463710000000000     11.288250000000000
C       1.880460000000000      3.158450000000000      9.596880000000001
N       1.088460000000000      1.914140000000000      9.631779999999999
C       0.151640000000000      1.734880000000000     10.768929999999999
H       6.317230000000000      1.750830000000000     10.018840000000001
H       5.775030000000000      3.180980000000000     12.169960000000000
H       4.135550000000000      1.731150000000000      8.494260000000001
H       1.915350000000000      3.535160000000000      8.552140000000000
H       1.424820000000000      3.949740000000000     10.212960000000001
C      -0.962500000000000      2.801720000000000     10.735049999999999
C      -0.515900000000000      0.353850000000000     10.617089999999999
C       0.883750000000000      1.761360000000000     12.127660000000001
H      -1.470170000000000      2.791250000000000      9.746950000000000
H      -1.718730000000000      2.597750000000000     11.523120000000000
H      -0.577920000000000      3.822100000000000     10.923170000000001
H       0.239140000000000     -0.455780000000000     10.678160000000000
H      -1.258990000000000      0.177880000000000     11.426320000000000
H      -1.040000000000000      0.274610000000000      9.640309999999999
H       1.638270000000000      0.948180000000000     12.184419999999999
H       1.394040000000000      2.729370000000000     12.295560000000000
H       0.161310000000000      1.615250000000000     12.960200000000000

-C 0
6-31g(d,p)
****
-H 0
6-31g(d,p)
****
-Mg 0
6-31g(d,p)
****
-N 0
6-31+g(d,p)
****
-Na 0
6-31g(d,p)
****
-O 0
6-31+g(d,p)
****


