%chk=lowest10_c1_a2_speciation0_speciationDFT37b_speciationDFT38_rank05_E162.31.chk
%nprocshared=20
%mem=40GB
#p opt=loose PM7/gen scf=xqc 

lowest10_c1_a2_speciation0_speciationDFT37b_speciationDFT38_rank05_E162.31 DFT input

0 1
Mg     -0.080760000000000      0.958300000000000     -0.019410000000000
C       0.163820000000000     -1.742320000000000      1.856660000000000
C      -1.988210000000000     -1.658740000000000      0.813690000000000
O      -0.805040000000000     -0.974200000000000      1.164900000000000
C       0.502120000000000     -3.095030000000000      1.226250000000000
C      -2.824970000000000     -2.034250000000000      2.027150000000000
H       1.098040000000000     -1.147720000000000      1.830200000000000
H      -0.108730000000000     -1.849400000000000      2.924850000000000
H      -2.589330000000000     -0.960490000000000      0.200410000000000
H      -1.793530000000000     -2.520710000000000      0.145620000000000
H      -3.792970000000000     -2.453730000000000      1.682990000000000
H      -3.018730000000000     -1.135990000000000      2.649170000000000
H      -2.298260000000000     -2.795860000000000      2.634640000000000
H       0.757340000000000     -2.975420000000000      0.160210000000000
H      -0.345560000000000     -3.801710000000000      1.330320000000000
H       1.383590000000000     -3.529910000000000      1.738420000000000
H      -1.392630000000000      2.492830000000000      1.725080000000000
C      -2.313980000000000      3.028250000000000     -0.191960000000000
C      -1.090230000000000      2.692900000000000      0.677530000000000
C      -3.351900000000000      1.897260000000000     -0.335100000000000
H      -2.810680000000000      3.924250000000000      0.234800000000000
H      -1.957620000000000      3.276840000000000     -1.214580000000000
H      -4.181620000000000      2.265090000000000     -0.980190000000000
H      -2.893000000000000      1.029650000000000     -0.850540000000000
C      -3.958660000000000      1.445550000000000      0.993190000000000
H      -0.367530000000000      3.531140000000000      0.658010000000000
H      -3.177200000000000      1.023770000000000      1.653980000000000
H      -4.453310000000000      2.296010000000000      1.506240000000000
H      -4.716950000000000      0.653270000000000      0.807550000000000
C      -1.152360000000000     -1.838990000000000     -2.579100000000000
C      -1.279070000000000     -0.496220000000000     -2.845010000000000
C      -0.097090000000000      0.118000000000000     -2.467870000000000
C       0.713270000000000     -0.821740000000000     -1.962970000000000
N       0.116080000000000     -2.091580000000000     -2.031200000000000
C       2.069680000000000     -0.571040000000000     -1.353620000000000
N       1.918560000000000      0.333580000000000     -0.208530000000000
C       3.134970000000000      0.849430000000000      0.466960000000000
H      -2.159350000000000     -0.015660000000000     -3.253340000000000
H      -1.907140000000000     -2.593200000000000     -2.744200000000000
H       0.112650000000000      1.177300000000000     -2.519850000000000
H       2.733890000000000     -0.141740000000000     -2.126320000000000
H       2.478820000000000     -1.543900000000000     -1.006580000000000
C       3.922700000000000      1.785570000000000     -0.470520000000000
C       2.709330000000000      1.641930000000000      1.713770000000000
C       4.050720000000000     -0.314110000000000      0.917580000000000
H       3.291910000000000      2.643730000000000     -0.782810000000000
H       4.828600000000000      2.178040000000000      0.041970000000000
H       4.272780000000000      1.252940000000000     -1.377640000000000
H       2.169150000000000      0.989780000000000      2.432100000000000
H       3.599220000000000      2.063880000000000      2.233560000000000
H       2.041490000000000      2.482010000000000      1.429830000000000
H       3.507190000000000     -1.003820000000000      1.597940000000000
H       4.423040000000000     -0.898110000000000      0.050320000000000
H       4.941500000000000      0.071750000000000      1.460750000000000
Na     -0.254210000000000      6.355930000000000     10.868150000000000
C       1.418460000000000      3.692950000000000     11.818009999999999
C      -0.031490000000000      3.164380000000000     10.108480000000000
O       0.085540000000000      3.796400000000000     11.364660000000001
C       1.533070000000000      4.361920000000000     13.180450000000000
C      -1.466530000000000      3.287360000000000      9.617660000000001
H       1.716200000000000      2.625850000000000     11.936880000000000
H       2.113580000000000      4.215940000000000     11.122299999999999
H       0.629030000000000      3.652490000000000      9.355650000000001
H       0.201890000000000      2.080390000000000     10.193110000000001
H      -1.745440000000000      4.357440000000000      9.514170000000000
H      -1.567880000000000      2.791950000000000      8.628610000000000
H      -2.158760000000000      2.799020000000000     10.336140000000000
H       0.860890000000000      3.861720000000000     13.909770000000000
H       2.578650000000000      4.289860000000000     13.547870000000000
H       1.252220000000000      5.434000000000000     13.104670000000000
Na     -1.252380000000000      2.194120000000000     12.981360000000000
Mg      3.935530000000000     -0.335480000000000      8.148970000000000
C       6.301860000000000      1.807590000000000      8.585690000000000
C       5.207660000000000      2.129010000000000      6.493370000000000
O       5.728760000000000      1.213020000000000      7.435330000000000
C       5.326790000000000      2.651550000000000      9.408480000000001
C       6.306640000000000      2.879040000000000      5.753900000000000
H       6.617720000000000      0.969650000000000      9.237180000000000
H       7.233280000000000      2.358260000000000      8.345969999999999
H       4.648890000000000      1.528850000000000      5.742730000000000
H       4.454760000000000      2.815570000000000      6.930670000000000
H       7.022970000000000      2.153560000000000      5.314120000000000
H       5.855140000000000      3.484460000000000      4.940910000000000
H       6.842290000000000      3.561880000000000      6.443360000000000
H       4.387640000000000      2.092850000000000      9.588139999999999
H       5.791500000000000      2.898150000000000     10.385970000000000
H       5.094530000000000      3.604220000000000      8.893400000000000
H       1.682480000000000      0.657080000000000      9.052809999999999
C       1.281910000000000      0.064100000000000      6.999310000000000
C       2.143540000000000      0.737050000000000      8.048870000000001
C       1.156200000000000     -1.433900000000000      7.296560000000000
H       0.286870000000000      0.554360000000000      7.006510000000000
H       1.750740000000000      0.194700000000000      5.998540000000000
H       2.151990000000000     -1.917190000000000      7.198490000000000
H       0.791290000000000     -1.592030000000000      8.333769999999999
C       0.178520000000000     -2.097330000000000      6.335960000000000
H       2.325390000000000      1.801740000000000      7.796980000000000
H      -0.829930000000000     -1.649110000000000      6.464500000000000
H       0.511000000000000     -1.961230000000000      5.286230000000000
H       0.115670000000000     -3.183460000000000      6.556850000000000
C       4.128070000000000     -3.818130000000000      6.416030000000000
C       4.565410000000000     -2.656290000000000      5.818450000000000
C       5.391540000000000     -2.016750000000000      6.725010000000000
C       5.443850000000000     -2.750040000000000      7.839560000000000
N       4.677750000000000     -3.929180000000000      7.699420000000000
C       6.205290000000000     -2.419700000000000      9.093560000000000
N       5.616060000000000     -1.263840000000000      9.795890000000000
C       4.760750000000000     -1.546950000000000     10.975420000000000
H       4.294720000000000     -2.315020000000000      4.828540000000000
H       3.456160000000000     -4.540700000000000      5.973570000000000
H       5.898260000000000     -1.076930000000000      6.555210000000000
H       7.255290000000000     -2.179680000000000      8.820700000000000
H       6.232460000000000     -3.315740000000000      9.733790000000001
C       5.583620000000000     -2.199870000000000     12.105560000000001
C       4.223650000000000     -0.201790000000000     11.502630000000000
C       3.549490000000000     -2.430920000000000     10.609130000000000
H       6.465080000000000     -1.568870000000000     12.348570000000000
H       4.964730000000000     -2.310240000000000     13.021739999999999
H       5.938170000000000     -3.213870000000000     11.840030000000000
H       3.586440000000000      0.291780000000000     10.741289999999999
H       3.601130000000000     -0.349020000000000     12.413010000000000
H       5.060170000000000      0.482960000000000     11.760320000000000
H       2.913910000000000     -1.931900000000000      9.847020000000001
H       3.868930000000000     -3.414460000000000     10.213900000000001
H       2.921330000000000     -2.619180000000000     11.507110000000001

-C 0
6-31g(d,p)
****
-H 0
6-31g(d,p)
****
-Mg 0
6-31g(d,p)
****
-N 0
6-31+g(d,p)
****
-Na 0
6-31g(d,p)
****
-O 0
6-31+g(d,p)
****


