%chk=lowest10_c1_a2_speciation7_speciationDFT2_speciationDFT96_rank06_E229.60.chk
%nprocshared=20
%mem=40GB
#p opt=loose PM7/gen scf=xqc 

lowest10_c1_a2_speciation7_speciationDFT2_speciationDFT96_rank06_E229.60 DFT input

0 1
Mg     -0.002360000000000      0.311810000000000     -0.383030000000000
C      -1.664270000000000     -2.693840000000000     -1.011560000000000
C       0.685460000000000     -2.939940000000000     -0.671170000000000
O      -0.462050000000000     -2.124510000000000     -0.527760000000000
C      -2.119000000000000     -3.920470000000000     -0.227480000000000
C       1.052350000000000     -3.230150000000000     -2.124080000000000
H      -2.448100000000000     -1.915340000000000     -0.888840000000000
H      -1.621510000000000     -2.907330000000000     -2.096460000000000
H       1.532270000000000     -2.365260000000000     -0.246320000000000
H       0.621910000000000     -3.860410000000000     -0.056300000000000
H       1.108450000000000     -2.284230000000000     -2.701510000000000
H       2.043930000000000     -3.727870000000000     -2.155500000000000
H       0.311930000000000     -3.910160000000000     -2.589040000000000
H      -2.177400000000000     -3.691700000000000      0.855600000000000
H      -3.126210000000000     -4.222160000000000     -0.584110000000000
H      -1.425460000000000     -4.768160000000000     -0.393090000000000
H      -2.350420000000000      0.649670000000000     -2.149910000000000
C      -0.910020000000000     -0.082140000000000     -3.637680000000000
C      -1.284570000000000      0.759870000000000     -2.437720000000000
C      -1.699880000000000      0.386450000000000     -4.846960000000000
H       0.177770000000000      0.013520000000000     -3.833650000000000
H      -1.134080000000000     -1.145170000000000     -3.423510000000000
H      -2.786410000000000      0.288230000000000     -4.632410000000000
H      -1.462660000000000      1.454720000000000     -5.043680000000000
C      -1.351280000000000     -0.442500000000000     -6.072550000000000
H      -0.990690000000000      1.822660000000000     -2.562060000000000
H      -0.269020000000000     -0.346400000000000     -6.304550000000000
H      -1.594520000000000     -1.511710000000000     -5.893290000000000
H      -1.941730000000000     -0.075660000000000     -6.936170000000000
C       0.264970000000000      2.147520000000000      4.113320000000000
C       1.247740000000000      3.013620000000000      3.686650000000000
C       2.018930000000000      2.322990000000000      2.764280000000000
C       1.481540000000000      1.110920000000000      2.651090000000000
N       0.385160000000000      1.016590000000000      3.522170000000000
C       1.948310000000000     -0.063390000000000      1.811910000000000
N       1.848100000000000      0.089970000000000      0.348670000000000
C       2.806440000000000      0.827120000000000     -0.487020000000000
H       1.391570000000000      4.031200000000000      4.028150000000000
H      -0.508650000000000      2.353570000000000      4.838690000000000
H       2.889240000000000      2.709850000000000      2.264880000000000
H       1.276050000000000     -0.910810000000000      2.067820000000000
H       2.963020000000000     -0.377910000000000      2.111570000000000
C       4.209170000000000      0.797790000000000      0.123740000000000
C       2.855600000000000      0.121710000000000     -1.857100000000000
C       2.313720000000000      2.269170000000000     -0.729670000000000
H       4.521520000000000     -0.258920000000000      0.274400000000000
H       4.936050000000000      1.296300000000000     -0.547690000000000
H       4.222770000000000      1.315010000000000      1.100260000000000
H       1.849810000000000      0.107580000000000     -2.322710000000000
H       3.546040000000000      0.644450000000000     -2.553680000000000
H       3.190230000000000     -0.932110000000000     -1.750920000000000
H       1.340440000000000      2.273050000000000     -1.269250000000000
H       2.163460000000000      2.825780000000000      0.205440000000000
H       3.046720000000000      2.829050000000000     -1.348970000000000
C      -2.203540000000000      1.439550000000000      1.579820000000000
C      -1.843980000000000     -0.830580000000000      2.112330000000000
O      -1.790320000000000      0.169690000000000      1.114950000000000
C      -1.357470000000000      2.536000000000000      0.928440000000000
C      -3.267250000000000     -1.297430000000000      2.341440000000000
H      -3.261390000000000      1.592540000000000      1.286460000000000
H      -2.113340000000000      1.555430000000000      2.681280000000000
H      -1.236380000000000     -1.691000000000000      1.768450000000000
H      -1.380590000000000     -0.523790000000000      3.065740000000000
H      -3.706780000000000     -1.646250000000000      1.384430000000000
H      -3.263100000000000     -2.130250000000000      3.074320000000000
H      -3.869810000000000     -0.459320000000000      2.745890000000000
H      -0.290690000000000      2.432340000000000      1.195800000000000
H      -1.434340000000000      2.497910000000000     -0.176570000000000
H      -1.703150000000000      3.530710000000000      1.274960000000000
Na     -0.320080000000000      8.675520000000001     -2.289260000000000
C       2.585630000000000      9.269299999999999     -3.466920000000000
C       2.482690000000000      6.944190000000000     -3.168800000000000
O       2.078510000000000      8.208990000000000     -2.679730000000000
C       1.625290000000000      9.611530000000000     -4.601830000000000
C       3.800900000000000      6.503330000000000     -2.537260000000000
H       2.683340000000000     10.161690000000000     -2.813010000000000
H       3.606170000000000      9.062230000000000     -3.860480000000000
H       1.697880000000000      6.208200000000000     -2.891880000000000
H       2.555080000000000      6.917000000000000     -4.278710000000000
H       3.703120000000000      6.444240000000000     -1.433380000000000
H       4.074640000000000      5.498210000000000     -2.920840000000000
H       4.614190000000000      7.213920000000000     -2.791450000000000
H       0.631470000000000      9.890020000000000     -4.192890000000000
H       2.026810000000000     10.468959999999999     -5.180980000000000
H       1.505380000000000      8.747120000000001     -5.286160000000000
C      -1.216210000000000      6.766120000000000     -4.902310000000000
C      -3.114080000000000      7.441190000000000     -3.627220000000000
O      -1.702030000000000      7.365150000000000     -3.714310000000000
C      -1.571570000000000      7.539290000000000     -6.172790000000000
C      -3.798760000000000      6.074800000000000     -3.594630000000000
H      -0.108750000000000      6.770580000000000     -4.824970000000000
H      -1.503760000000000      5.697080000000000     -4.972310000000000
H      -3.342370000000000      7.937550000000000     -2.659620000000000
H      -3.543190000000000      8.103650000000000     -4.407270000000000
H      -3.359190000000000      5.447960000000000     -2.790360000000000
H      -4.881820000000000      6.212740000000000     -3.394000000000000
H      -3.699900000000000      5.557000000000000     -4.569930000000000
H      -1.244700000000000      8.596550000000001     -6.081460000000000
H      -1.053270000000000      7.075280000000000     -7.038100000000000
H      -2.661280000000000      7.499390000000000     -6.372830000000000
Na      2.590000000000000      8.216760000000001     -0.344260000000000
C      -0.321220000000000      9.497120000000001      0.620390000000000
C      -0.336840000000000      7.155740000000000      0.643370000000000
O       0.204060000000000      8.317489999999999      0.047030000000000
C       0.552510000000000     10.674429999999999      0.204260000000000
C      -1.729780000000000      6.834120000000000      0.105650000000000
H      -1.348700000000000      9.682200000000000      0.240380000000000
H      -0.319350000000000      9.460300000000000      1.732970000000000
H       0.331740000000000      6.308670000000000      0.377730000000000
H      -0.333420000000000      7.211510000000000      1.754360000000000
H      -1.696780000000000      6.722330000000000     -0.997600000000000
H      -2.085720000000000      5.881540000000000      0.549130000000000
H      -2.451250000000000      7.632590000000000      0.373400000000000
H       0.587850000000000     10.756180000000001     -0.903310000000000
H       0.139420000000000     11.616980000000000      0.620260000000000
H       1.585340000000000     10.538910000000000      0.587660000000000
C       3.946170000000000      9.002160000000000      2.575000000000000
C       5.011510000000000     10.179449999999999      0.888980000000000
O       3.942330000000000      9.321389999999999      1.204740000000000
C       2.786500000000000      8.051930000000000      2.843470000000000
C       4.931050000000000     10.508410000000000     -0.595860000000000
H       4.889420000000000      8.484370000000000      2.861090000000000
H       3.793740000000000      9.916069999999999      3.191870000000000
H       4.935870000000000     11.133530000000000      1.457670000000000
H       5.988330000000000      9.681030000000000      1.081000000000000
H       3.964430000000000     11.008480000000000     -0.819720000000000
H       5.761800000000000     11.185359999999999     -0.884160000000000
H       4.999690000000000      9.575880000000000     -1.197110000000000
H       2.904560000000000      7.124780000000000      2.241830000000000
H       2.751340000000000      7.782750000000000      3.919340000000000
H       1.828900000000000      8.538290000000000      2.564480000000000
Mg     -0.837250000000000     15.797070000000000     -4.791880000000000
H       0.176900000000000     15.585100000000001     -7.683080000000000
C       1.762340000000000     16.806619999999999     -6.781190000000000
C       0.298310000000000     16.446320000000000     -6.995180000000000
C       2.568040000000000     15.703680000000000     -6.075010000000000
H       2.217520000000000     17.045449999999999     -7.764850000000000
H       1.804450000000000     17.715979999999998     -6.143180000000000
H       3.615210000000000     16.063340000000000     -5.973550000000000
H       2.164020000000000     15.528370000000001     -5.055410000000000
C       2.584560000000000     14.376370000000000     -6.831810000000000
H      -0.271730000000000     17.314109999999999     -7.385190000000000
H       1.567870000000000     13.932910000000000     -6.868800000000000
H       2.965570000000000     14.522589999999999     -7.864050000000000
H       3.247450000000000     13.659290000000000     -6.302620000000000
C       1.115430000000000     15.842510000000001     -2.286910000000000
C       1.017640000000000     15.260120000000001     -1.034020000000000
C      -0.175470000000000     14.553900000000001     -1.008310000000000
C      -0.743820000000000     14.718660000000000     -2.252020000000000
N       0.033220000000000     15.506220000000001     -3.007440000000000
C      -2.054260000000000     14.145009999999999     -2.758470000000000
N      -2.162860000000000     14.362880000000001     -4.216940000000000
C      -3.338950000000000     13.889989999999999     -4.968920000000000
H       1.732060000000000     15.344270000000000     -0.226440000000000
H       1.921090000000000     16.472320000000000     -2.641630000000000
H      -0.575620000000000     13.979329999999999     -0.184810000000000
H      -2.878170000000000     14.650850000000000     -2.214180000000000
H      -2.065150000000000     13.058850000000000     -2.548930000000000
C      -4.638840000000000     14.481050000000000     -4.393820000000000
C      -3.195050000000000     14.336990000000000     -6.435470000000000
C      -3.391030000000000     12.350000000000000     -4.930390000000000
H      -4.604500000000000     15.591229999999999     -4.420070000000000
H      -5.515180000000000     14.140140000000001     -4.986720000000000
H      -4.797920000000000     14.153010000000000     -3.346190000000000
H      -2.260580000000000     13.933220000000000     -6.881590000000000
H      -4.054300000000000     13.972540000000000     -7.041850000000000
H      -3.165080000000000     15.445290000000000     -6.508750000000000
H      -2.453780000000000     11.924270000000000     -5.351920000000000
H      -3.508380000000000     11.975590000000000     -3.893300000000000
H      -4.248570000000000     11.968600000000000     -5.524420000000000

-C 0
6-31g(d,p)
****
-H 0
6-31g(d,p)
****
-Mg 0
6-31g(d,p)
****
-N 0
6-31+g(d,p)
****
-Na 0
6-31g(d,p)
****
-O 0
6-31+g(d,p)
****


