%chk=lowest10_c1_a2_speciation7_speciationDFT0_speciationDFT96_rank10_E227.32.chk
%nprocshared=20
%mem=40GB
#p opt=loose PM7/gen scf=xqc 

lowest10_c1_a2_speciation7_speciationDFT0_speciationDFT96_rank10_E227.32 DFT input

0 1
Mg     -0.359000000000000     -0.254070000000000      0.013200000000000
C       1.646820000000000     -1.331930000000000     -2.650320000000000
C       1.075070000000000      0.982690000000000     -2.747960000000000
O       1.161030000000000     -0.192710000000000     -1.964430000000000
C       3.101650000000000     -1.206670000000000     -3.091780000000000
C       0.078590000000000      0.878500000000000     -3.899670000000000
H       1.593360000000000     -2.175830000000000     -1.928960000000000
H       0.996610000000000     -1.621060000000000     -3.497810000000000
H       0.693390000000000      1.778500000000000     -2.077920000000000
H       2.072250000000000      1.336400000000000     -3.079520000000000
H      -0.904420000000000      0.525700000000000     -3.524790000000000
H      -0.051900000000000      1.880540000000000     -4.358820000000000
H       0.450980000000000      0.188700000000000     -4.682250000000000
H       3.748300000000000     -0.937170000000000     -2.232700000000000
H       3.438580000000000     -2.182280000000000     -3.500800000000000
H       3.203840000000000     -0.444720000000000     -3.889350000000000
H      -0.840580000000000     -3.090670000000000     -0.722980000000000
C      -2.034690000000000     -2.127820000000000     -2.293090000000000
C      -1.537150000000000     -2.239340000000000     -0.868360000000000
C      -2.835960000000000     -3.369080000000000     -2.646220000000000
H      -2.669820000000000     -1.223680000000000     -2.394470000000000
H      -1.168900000000000     -2.025290000000000     -2.975850000000000
H      -2.187570000000000     -4.265480000000000     -2.535160000000000
H      -3.698490000000000     -3.455280000000000     -1.949980000000000
C      -3.347370000000000     -3.291720000000000     -4.075610000000000
H      -2.369750000000000     -2.251080000000000     -0.134840000000000
H      -4.005400000000000     -2.405120000000000     -4.199180000000000
H      -2.494300000000000     -3.217210000000000     -4.783570000000000
H      -3.927710000000000     -4.208960000000000     -4.301500000000000
C       1.603450000000000      1.145250000000000      4.227700000000000
C       0.395910000000000      1.705080000000000      4.587760000000000
C      -0.154870000000000      2.241180000000000      3.434180000000000
C       0.695860000000000      1.977800000000000      2.446290000000000
N       1.806560000000000      1.297730000000000      2.974540000000000
C       0.609070000000000      2.372080000000000      0.985380000000000
N      -0.464100000000000      1.739970000000000      0.194660000000000
C      -1.871800000000000      2.163310000000000      0.198970000000000
H      -0.022430000000000      1.731290000000000      5.585450000000000
H       2.302720000000000      0.644570000000000      4.883380000000000
H      -1.085200000000000      2.778870000000000      3.378510000000000
H       1.559580000000000      2.034620000000000      0.518350000000000
H       0.589680000000000      3.470860000000000      0.878780000000000
C      -2.000680000000000      3.661180000000000      0.487680000000000
C      -2.435570000000000      1.887140000000000     -1.209160000000000
C      -2.687750000000000      1.312550000000000      1.194530000000000
H      -1.403450000000000      4.231560000000000     -0.257050000000000
H      -3.059730000000000      3.980790000000000      0.420230000000000
H      -1.627750000000000      3.900090000000000      1.500230000000000
H      -2.343960000000000      0.810990000000000     -1.459310000000000
H      -3.510780000000000      2.161340000000000     -1.272920000000000
H      -1.877680000000000      2.459260000000000     -1.980570000000000
H      -2.667800000000000      0.237020000000000      0.909580000000000
H      -2.302350000000000      1.378910000000000      2.221180000000000
H      -3.749160000000000      1.640280000000000      1.203920000000000
C       1.253080000000000     -1.834180000000000      2.220870000000000
C       2.813980000000000     -0.826780000000000      0.768150000000000
O       1.505900000000000     -1.339870000000000      0.920600000000000
C      -0.191470000000000     -1.530100000000000      2.623370000000000
C       3.825700000000000     -1.945070000000000      0.616660000000000
H       1.389200000000000     -2.932730000000000      2.208450000000000
H       1.917930000000000     -1.396120000000000      2.996120000000000
H       2.831970000000000     -0.201810000000000     -0.146750000000000
H       3.113410000000000     -0.143240000000000      1.581510000000000
H       3.538890000000000     -2.599020000000000     -0.232370000000000
H       4.826370000000000     -1.505640000000000      0.425770000000000
H       3.861530000000000     -2.540530000000000      1.551290000000000
H      -0.377410000000000     -0.441280000000000      2.654560000000000
H      -0.907800000000000     -1.975590000000000      1.904460000000000
H      -0.396680000000000     -1.944230000000000      3.631840000000000
Na      0.501430000000000    -11.941100000000000      1.560610000000000
C       2.871770000000000    -12.559020000000000      3.607870000000000
C       1.007440000000000    -12.058160000000001      4.941430000000000
O       1.691050000000000    -11.789700000000000      3.731910000000000
C       2.581920000000000    -13.892720000000001      2.926590000000000
C       1.479240000000000    -11.131560000000000      6.059020000000000
H       3.583000000000000    -11.990560000000000      2.971800000000000
H       3.387360000000000    -12.716030000000000      4.581960000000000
H      -0.074300000000000    -11.874490000000000      4.766790000000000
H       1.094340000000000    -13.121919999999999      5.255770000000000
H       1.310290000000000    -10.070330000000000      5.781960000000000
H       0.906410000000000    -11.349950000000000      6.984020000000000
H       2.558460000000000    -11.284860000000000      6.265820000000000
H       2.136720000000000    -13.722429999999999      1.924060000000000
H       3.527810000000000    -14.460559999999999      2.806060000000000
H       1.880440000000000    -14.498430000000001      3.535570000000000
C      -1.401970000000000    -14.475320000000000      2.690140000000000
C      -2.167220000000000    -13.684930000000000      0.575440000000000
O      -1.317880000000000    -13.475680000000001      1.690070000000000
C      -0.966760000000000    -15.862000000000000      2.214300000000000
C      -3.654360000000000    -13.651800000000000      0.926330000000000
H      -0.694700000000000    -14.176480000000000      3.491950000000000
H      -2.401950000000000    -14.495400000000000      3.169810000000000
H      -1.983630000000000    -12.839760000000000     -0.122240000000000
H      -1.893100000000000    -14.599320000000001      0.009810000000000
H      -3.893460000000000    -12.713350000000000      1.468280000000000
H      -4.252470000000000    -13.691860000000000     -0.007930000000000
H      -3.937570000000000    -14.526600000000000      1.545770000000000
H       0.048390000000000    -15.811950000000000      1.767210000000000
H      -0.944400000000000    -16.554500000000001      3.081780000000000
H      -1.682520000000000    -16.273640000000000      1.474450000000000
Na      1.897930000000000     -9.408460000000000      3.597580000000000
C       0.965280000000000     -9.184770000000000      0.410960000000000
C      -0.839740000000000     -8.931300000000000      1.880240000000000
O       0.428770000000000     -9.519470000000000      1.674290000000000
C       2.449210000000000     -9.531010000000000      0.403460000000000
C      -1.949600000000000     -9.705420000000000      1.171830000000000
H       0.470160000000000     -9.781590000000000     -0.384690000000000
H       0.878000000000000     -8.096869999999999      0.191680000000000
H      -1.045280000000000     -8.969230000000000      2.971640000000000
H      -0.855260000000000     -7.854140000000000      1.602720000000000
H      -1.952250000000000    -10.762560000000001      1.508530000000000
H      -2.931830000000000     -9.250489999999999      1.418500000000000
H      -1.815230000000000     -9.670529999999999      0.071430000000000
H       2.593640000000000    -10.610880000000000      0.621700000000000
H       2.885550000000000     -9.304959999999999     -0.592200000000000
H       2.985290000000000     -8.934950000000001      1.171190000000000
C       3.215290000000000     -6.369810000000000      3.459400000000000
C       4.890580000000000     -7.914600000000000      3.871580000000000
O       3.531880000000000     -7.737540000000000      3.553000000000000
C       1.730340000000000     -6.248800000000000      3.144840000000000
C       5.171880000000000     -9.410250000000000      3.928840000000000
H       3.406550000000000     -5.849200000000000      4.424850000000000
H       3.784280000000000     -5.889810000000000      2.631730000000000
H       5.542980000000000     -7.471200000000000      3.086030000000000
H       5.122560000000000     -7.480130000000000      4.870030000000000
H       4.949000000000000     -9.874070000000000      2.944110000000000
H       6.238050000000000     -9.590410000000000      4.178550000000000
H       4.533610000000000     -9.889020000000000      4.702940000000000
H       1.128710000000000     -6.719980000000000      3.951760000000000
H       1.442110000000000     -5.182240000000000      3.058000000000000
H       1.505110000000000     -6.760160000000000      2.186180000000000
Mg     -4.323060000000000     -9.322279999999999      5.149740000000000
H      -4.000040000000000     -6.215220000000000      4.676640000000000
C      -6.116410000000000     -6.274610000000000      5.241340000000000
C      -4.885850000000000     -6.875470000000000      4.581780000000000
C      -5.916850000000000     -5.997890000000000      6.737970000000000
H      -6.347170000000000     -5.319070000000000      4.725860000000000
H      -6.978220000000000     -6.962170000000000      5.105550000000000
H      -5.062720000000000     -5.301980000000000      6.886880000000000
H      -6.838470000000000     -5.505150000000000      7.113430000000000
C      -5.690250000000000     -7.264930000000000      7.565450000000000
H      -5.086870000000000     -7.092070000000000      3.510410000000000
H      -4.733370000000000     -7.752760000000000      7.290580000000000
H      -5.646030000000000     -6.993900000000000      8.642460000000000
H      -6.525790000000000     -7.982530000000000      7.419440000000000
C      -2.081900000000000     -9.574400000000001      7.389050000000000
C      -1.766400000000000    -10.601089999999999      8.263840000000000
C      -2.668430000000000    -11.626989999999999      8.026020000000001
C      -3.507790000000000    -11.174230000000000      7.032180000000000
N      -3.136860000000000     -9.946310000000000      6.645930000000000
C      -4.684890000000000    -11.899710000000001      6.407680000000000
N      -5.459670000000000    -10.959140000000000      5.570630000000000
C      -6.689460000000000    -11.390919999999999      4.882880000000000
H      -0.966480000000000    -10.605340000000000      8.991840000000000
H      -1.571400000000000     -8.624140000000001      7.302500000000000
H      -2.715620000000000    -12.583470000000000      8.528079999999999
H      -4.286720000000000    -12.740760000000000      5.803130000000000
H      -5.329230000000000    -12.283020000000000      7.220930000000000
C      -7.764360000000000    -11.761210000000000      5.923920000000000
C      -7.216150000000000    -10.216960000000000      4.038170000000000
C      -6.410930000000000    -12.587350000000001      3.956530000000000
H      -7.968660000000000    -10.893390000000000      6.589230000000000
H      -8.713410000000000    -12.051920000000001      5.425110000000000
H      -7.442340000000000    -12.615259999999999      6.553220000000000
H      -6.472690000000000     -9.919630000000000      3.267990000000000
H      -8.160130000000001    -10.499079999999999      3.520580000000000
H      -7.425940000000000     -9.335530000000000      4.680380000000000
H      -5.638070000000000    -12.320480000000000      3.205640000000000
H      -6.059170000000000    -13.466350000000000      4.534720000000000
H      -7.337390000000000    -12.887300000000000      3.420680000000000

-C 0
6-31g(d,p)
****
-H 0
6-31g(d,p)
****
-Mg 0
6-31g(d,p)
****
-N 0
6-31+g(d,p)
****
-Na 0
6-31g(d,p)
****
-O 0
6-31+g(d,p)
****


