%chk=lowest10_c1_a2_speciation0_speciationDFT36_speciationDFT38_rank07_E180.78.chk
%nprocshared=20
%mem=40GB
#p opt=loose PM7/gen scf=xqc 

lowest10_c1_a2_speciation0_speciationDFT36_speciationDFT38_rank07_E180.78 DFT input

0 1
Mg      0.450370000000000      0.141880000000000     -0.895640000000000
C      -2.244260000000000     -1.129860000000000      0.501470000000000
C      -0.348950000000000     -2.521560000000000      0.949080000000000
O      -0.909810000000000     -1.480340000000000      0.179430000000000
C      -2.524020000000000     -0.903480000000000      1.988980000000000
C      -1.002860000000000     -3.865660000000000      0.669580000000000
H      -2.430650000000000     -0.158890000000000      0.002170000000000
H      -2.959640000000000     -1.851580000000000      0.058200000000000
H       0.713540000000000     -2.601260000000000      0.649590000000000
H      -0.317010000000000     -2.277630000000000      2.029190000000000
H      -0.441230000000000     -4.659540000000000      1.203940000000000
H      -0.985920000000000     -4.078200000000000     -0.419440000000000
H      -2.050840000000000     -3.862120000000000      1.027410000000000
H      -1.796830000000000     -0.195940000000000      2.420040000000000
H      -2.488930000000000     -1.860790000000000      2.546700000000000
H      -3.534330000000000     -0.464550000000000      2.110970000000000
H       0.464010000000000     -1.365450000000000     -3.094030000000000
C       2.595190000000000     -1.200480000000000     -2.601340000000000
C       1.185780000000000     -0.600680000000000     -2.743330000000000
C       2.733500000000000     -2.321420000000000     -1.551960000000000
H       2.909220000000000     -1.590570000000000     -3.591670000000000
H       3.292440000000000     -0.387490000000000     -2.305770000000000
H       3.791210000000000     -2.669570000000000     -1.550430000000000
H       2.517750000000000     -1.918450000000000     -0.542030000000000
C       1.843250000000000     -3.533730000000000     -1.824710000000000
H       1.200970000000000      0.245150000000000     -3.456950000000000
H       0.774830000000000     -3.246900000000000     -1.789030000000000
H       2.072410000000000     -3.971320000000000     -2.818270000000000
H       2.017700000000000     -4.308890000000000     -1.046350000000000
C       1.693680000000000     -0.374020000000000      2.804600000000000
C       2.539790000000000     -0.036260000000000      1.773270000000000
C       1.931200000000000      0.977560000000000      1.054330000000000
C       0.742110000000000      1.229420000000000      1.612480000000000
N       0.542250000000000      0.423260000000000      2.750920000000000
C      -0.286490000000000      2.199460000000000      1.094510000000000
N      -0.674930000000000      1.801790000000000     -0.264360000000000
C      -1.567230000000000      2.691420000000000     -1.046290000000000
H       3.491830000000000     -0.504030000000000      1.561370000000000
H       1.868050000000000     -1.145710000000000      3.540830000000000
H       2.325110000000000      1.444820000000000      0.159520000000000
H       0.142260000000000      3.218580000000000      1.111690000000000
H      -1.173920000000000      2.153640000000000      1.759220000000000
C      -0.853270000000000      4.013890000000000     -1.387730000000000
C      -1.946310000000000      1.981990000000000     -2.356700000000000
C      -2.866790000000000      2.998200000000000     -0.263040000000000
H       0.066710000000000      3.817390000000000     -1.976690000000000
H      -1.521430000000000      4.675840000000000     -1.981360000000000
H      -0.576620000000000      4.574760000000000     -0.472330000000000
H      -2.498270000000000      1.040580000000000     -2.151580000000000
H      -2.596910000000000      2.633880000000000     -2.982460000000000
H      -1.035430000000000      1.735520000000000     -2.941380000000000
H      -3.403720000000000      2.060300000000000     -0.006050000000000
H      -2.655130000000000      3.549620000000000      0.676820000000000
H      -3.552910000000000      3.631020000000000     -0.868050000000000
Na      7.354490000000000      1.673610000000000      5.398740000000000
C       4.286820000000000      2.079800000000000      6.492720000000000
C       5.426770000000000      4.081150000000000      6.525540000000000
O       5.474660000000000      2.722490000000000      6.904160000000000
C       4.339140000000000      0.618900000000000      6.916680000000000
C       6.713050000000000      4.768530000000000      6.960220000000000
H       3.396490000000000      2.542720000000000      6.976980000000000
H       4.186280000000000      2.108300000000000      5.383770000000000
H       5.344260000000000      4.181830000000000      5.419140000000000
H       4.582620000000000      4.598960000000000      7.031480000000000
H       7.587850000000000      4.286970000000000      6.474050000000000
H       6.683260000000000      5.839410000000000      6.666480000000000
H       6.827590000000000      4.702480000000000      8.063079999999999
H       4.429180000000000      0.544470000000000      8.021369999999999
H       3.410320000000000      0.101080000000000      6.596130000000000
H       5.211030000000000      0.115670000000000      6.447090000000000
Na      5.262080000000000      2.812640000000000      9.530030000000000
Mg     -0.267480000000000      6.704950000000000      6.748560000000000
C      -1.169620000000000      5.769770000000000     10.392760000000001
C       0.033790000000000      7.736070000000000     10.450659999999999
O      -0.063800000000000      6.462100000000000      9.848070000000000
C      -1.035050000000000      4.285180000000000     10.091630000000000
C       1.150490000000000      8.528079999999999      9.785480000000000
H      -1.219220000000000      5.867800000000000     11.500940000000000
H      -2.114090000000000      6.142670000000000      9.942720000000000
H      -0.912970000000000      8.308389999999999     10.337090000000000
H       0.284100000000000      7.637310000000000     11.529360000000000
H       0.939220000000000      8.662680000000000      8.705370000000000
H       1.234000000000000      9.529080000000000     10.259309999999999
H       2.116290000000000      7.993260000000000      9.901630000000001
H      -0.100230000000000      3.887700000000000     10.537530000000000
H      -1.905470000000000      3.735440000000000     10.506209999999999
H      -1.002980000000000      4.111590000000000      9.004519999999999
H       2.902150000000000      7.239000000000000      7.538090000000000
C       2.272970000000000      7.736640000000000      5.499030000000000
C       2.285740000000000      6.821830000000000      6.716440000000000
C       1.689990000000000      9.112950000000000      5.841670000000000
H       3.316700000000000      7.843750000000000      5.137470000000000
H       1.658020000000000      7.268370000000000      4.698700000000000
H       0.626670000000000      9.011110000000000      6.151060000000000
H       2.261920000000000      9.565709999999999      6.679660000000000
C       1.768890000000000     10.050960000000000      4.640730000000000
H       2.640020000000000      5.809090000000000      6.439980000000000
H       2.828320000000000     10.183280000000000      4.333170000000000
H       1.189120000000000      9.641740000000000      3.786220000000000
H       1.353400000000000     11.044280000000001      4.912390000000000
C      -1.952820000000000      9.063700000000001      8.024170000000000
C      -3.291270000000000      9.151220000000000      8.366780000000000
C      -3.868500000000000      7.933850000000000      8.036030000000000
C      -2.856670000000000      7.149620000000000      7.527270000000000
N      -1.710180000000000      7.846890000000000      7.522210000000000
C      -2.936980000000000      5.723770000000000      7.010780000000000
N      -1.579370000000000      5.150590000000000      6.841280000000000
C      -1.393970000000000      3.967710000000000      5.978710000000000
H      -3.788140000000000     10.005280000000001      8.804290000000000
H      -1.207800000000000      9.842029999999999      8.145120000000000
H      -4.905020000000000      7.650870000000000      8.165100000000001
H      -3.481620000000000      5.101820000000000      7.750890000000000
H      -3.501520000000000      5.746700000000000      6.057180000000000
C      -1.531760000000000      4.348570000000000      4.495200000000000
C       0.027850000000000      3.414820000000000      6.209200000000000
C      -2.409310000000000      2.867580000000000      6.350480000000000
H      -0.774600000000000      5.114720000000000      4.221460000000000
H      -1.372010000000000      3.454510000000000      3.854970000000000
H      -2.539180000000000      4.750340000000000      4.270370000000000
H       0.178290000000000      3.118460000000000      7.268570000000000
H       0.209790000000000      2.516700000000000      5.578290000000000
H       0.793650000000000      4.176930000000000      5.953440000000000
H      -2.309600000000000      2.600250000000000      7.425290000000000
H      -3.450260000000000      3.207070000000000      6.169910000000000
H      -2.239450000000000      1.952240000000000      5.744550000000000

-C 0
6-31g(d,p)
****
-H 0
6-31g(d,p)
****
-Mg 0
6-31g(d,p)
****
-N 0
6-31+g(d,p)
****
-Na 0
6-31g(d,p)
****
-O 0
6-31+g(d,p)
****


