%chk=lowest10_c1_a2_speciation7_speciationDFT1_speciationDFT38_rank05_E222.19.chk
%nprocshared=20
%mem=40GB
#p opt=loose PM7/gen scf=xqc 

lowest10_c1_a2_speciation7_speciationDFT1_speciationDFT38_rank05_E222.19 DFT input

0 1
Mg      0.787320000000000     -0.473530000000000      0.304060000000000
C      -0.544530000000000      2.497050000000000     -0.182090000000000
C       0.144030000000000      1.551360000000000     -2.270340000000000
O       0.219590000000000      1.516440000000000     -0.861710000000000
C      -2.000620000000000      2.626300000000000     -0.634980000000000
C       0.804500000000000      2.789740000000000     -2.855580000000000
H      -0.579320000000000      2.173090000000000      0.876500000000000
H      -0.026930000000000      3.477410000000000     -0.192010000000000
H       0.703490000000000      0.671070000000000     -2.640500000000000
H      -0.889030000000000      1.401750000000000     -2.641240000000000
H       0.825840000000000      2.700290000000000     -3.961360000000000
H       1.843890000000000      2.881410000000000     -2.477840000000000
H       0.231040000000000      3.695530000000000     -2.578050000000000
H      -2.498350000000000      1.642710000000000     -0.634750000000000
H      -2.060360000000000      3.074550000000000     -1.647020000000000
H      -2.548940000000000      3.281760000000000      0.070710000000000
H       3.347560000000000      0.269400000000000      0.266190000000000
C       3.382470000000000     -1.658770000000000     -0.779220000000000
C       2.893210000000000     -0.738100000000000      0.351920000000000
C       2.993710000000000     -1.218130000000000     -2.204530000000000
H       4.487550000000000     -1.735620000000000     -0.712570000000000
H       2.948850000000000     -2.669140000000000     -0.619190000000000
H       3.407600000000000     -1.960070000000000     -2.924400000000000
H       1.890660000000000     -1.232800000000000     -2.313900000000000
C       3.532300000000000      0.159000000000000     -2.591900000000000
H       3.148930000000000     -1.174150000000000      1.336480000000000
H       3.110090000000000      0.940860000000000     -1.931990000000000
H       4.639520000000000      0.179340000000000     -2.522540000000000
H       3.237510000000000      0.395500000000000     -3.638000000000000
C      -1.881010000000000     -1.290870000000000     -2.471130000000000
C      -0.923240000000000     -2.192990000000000     -2.068330000000000
C      -0.892540000000000     -2.173290000000000     -0.684960000000000
C      -1.782290000000000     -1.269480000000000     -0.260450000000000
N      -2.468000000000000     -0.692650000000000     -1.347940000000000
C      -2.011510000000000     -0.863850000000000      1.171310000000000
N      -0.760530000000000     -0.325110000000000      1.719520000000000
C      -0.690780000000000      0.000460000000000      3.164580000000000
H      -0.299140000000000     -2.783550000000000     -2.725470000000000
H      -2.140280000000000     -1.055480000000000     -3.493550000000000
H      -0.221930000000000     -2.748420000000000     -0.057600000000000
H      -2.355330000000000     -1.745010000000000      1.742170000000000
H      -2.793770000000000     -0.076160000000000      1.189840000000000
C      -0.789280000000000     -1.279720000000000      4.017410000000000
C       0.656770000000000      0.683020000000000      3.451910000000000
C      -1.826540000000000      0.972150000000000      3.566600000000000
H       0.035810000000000     -1.978170000000000      3.765940000000000
H      -0.728480000000000     -1.032330000000000      5.100090000000000
H      -1.755960000000000     -1.799670000000000      3.861210000000000
H       0.749000000000000      1.631870000000000      2.882550000000000
H       0.754060000000000      0.920140000000000      4.535470000000000
H       1.497420000000000      0.017330000000000      3.164640000000000
H      -1.777280000000000      1.906140000000000      2.967200000000000
H      -2.826210000000000      0.512850000000000      3.418650000000000
H      -1.747840000000000      1.249630000000000      4.640820000000000
Na    -12.603850000000000     -6.734410000000000     -1.138390000000000
C     -13.358900000000000     -3.774270000000000     -2.065050000000000
C     -12.649080000000000     -3.577100000000000      0.162150000000000
O     -13.313319999999999     -4.385600000000000     -0.790350000000000
C     -12.128190000000000     -4.141800000000000     -2.887930000000000
C     -13.627739999999999     -2.647080000000000      0.874800000000000
H     -14.257910000000001     -4.156390000000000     -2.593570000000000
H     -13.481500000000000     -2.669330000000000     -2.007670000000000
H     -12.192320000000000     -4.251600000000000      0.917500000000000
H     -11.810710000000000     -2.994230000000000     -0.279740000000000
H     -14.416150000000000     -3.234000000000000      1.390320000000000
H     -13.080710000000000     -2.048020000000000      1.632710000000000
H     -14.106579999999999     -1.954180000000000      0.152710000000000
H     -12.058490000000001     -5.243800000000000     -3.002320000000000
H     -12.205180000000000     -3.681700000000000     -3.894870000000000
H     -11.205140000000000     -3.770090000000000     -2.398420000000000
C      -9.390540000000000     -5.946820000000000     -0.540240000000000
C      -9.698510000000001     -8.306870000000000     -0.680960000000000
O     -10.303530000000000     -7.028490000000000     -0.596070000000000
C      -8.522629999999999     -5.807530000000000     -1.791220000000000
C      -8.860239999999999     -8.668120000000000      0.544920000000000
H     -10.003090000000000     -5.023420000000000     -0.472150000000000
H      -8.782249999999999     -5.967890000000000      0.387100000000000
H     -10.528280000000001     -9.044309999999999     -0.731030000000000
H      -9.131280000000000     -8.436460000000000     -1.625830000000000
H      -9.465510000000000     -8.547920000000000      1.467950000000000
H      -8.530230000000000     -9.724959999999999      0.464370000000000
H      -7.952370000000000     -8.034820000000000      0.606370000000000
H      -9.162220000000000     -5.760760000000000     -2.697540000000000
H      -7.930800000000000     -4.871940000000000     -1.721380000000000
H      -7.808510000000000     -6.651030000000000     -1.878020000000000
Na    -15.390330000000001     -5.030530000000000      0.206180000000000
C     -15.183619999999999     -8.237090000000000     -0.652210000000000
C     -14.298500000000001     -7.835070000000000      1.477090000000000
O     -14.547470000000001     -7.300750000000000      0.192780000000000
C     -15.744850000000000     -7.500080000000000     -1.861900000000000
C     -13.063150000000000     -8.733219999999999      1.492240000000000
H     -14.446910000000001     -8.984260000000001     -1.017380000000000
H     -16.036460000000002     -8.746040000000001     -0.149360000000000
H     -14.101129999999999     -6.977660000000000      2.155730000000000
H     -15.186340000000000     -8.358689999999999      1.895400000000000
H     -12.178480000000000     -8.171580000000001      1.127810000000000
H     -12.866709999999999     -9.072200000000000      2.530950000000000
H     -13.217520000000000     -9.628819999999999      0.856620000000000
H     -14.931130000000000     -6.968150000000000     -2.399950000000000
H     -16.222190000000001     -8.222400000000000     -2.556970000000000
H     -16.505990000000001     -6.759240000000000     -1.539490000000000
C     -18.639980000000001     -5.355620000000000      0.772510000000000
C     -18.307469999999999     -3.863210000000000     -0.966580000000000
O     -17.693069999999999     -4.780480000000000     -0.094710000000000
C     -17.908890000000000     -6.312560000000000      1.704730000000000
C     -17.237320000000000     -3.302690000000000     -1.893820000000000
H     -19.134000000000000     -4.576840000000000      1.396330000000000
H     -19.393850000000000     -5.940520000000000      0.199330000000000
H     -19.077349999999999     -4.366600000000000     -1.593720000000000
H     -18.752600000000001     -3.015350000000000     -0.398740000000000
H     -16.773050000000001     -4.127320000000000     -2.476010000000000
H     -17.685369999999999     -2.572120000000000     -2.598820000000000
H     -16.446880000000000     -2.794100000000000     -1.300240000000000
H     -17.144620000000000     -5.761930000000000      2.294740000000000
H     -18.626239999999999     -6.793500000000000      2.401350000000000
H     -17.401219999999999     -7.101530000000000      1.112140000000000
Mg     -7.764870000000000     -0.886420000000000      4.634520000000000
H      -5.154980000000000     -2.287810000000000      3.768030000000000
C      -6.233770000000000     -2.217400000000000      1.867600000000000
C      -6.182470000000000     -2.419370000000000      3.370510000000000
C      -5.371860000000000     -3.271430000000000      1.179120000000000
H      -7.288380000000000     -2.302610000000000      1.525270000000000
H      -5.863540000000000     -1.196350000000000      1.628280000000000
H      -4.325410000000000     -3.184930000000000      1.541780000000000
H      -5.757010000000000     -4.283430000000000      1.432430000000000
C      -5.389170000000000     -3.096150000000000     -0.331700000000000
H      -6.603040000000000     -3.404190000000000      3.663610000000000
H      -6.425720000000000     -3.196100000000000     -0.716130000000000
H      -4.990110000000000     -2.097130000000000     -0.606990000000000
H      -4.753970000000000     -3.878830000000000     -0.795770000000000
C      -6.926370000000000     -0.373520000000000      7.647780000000000
C      -7.377940000000000      0.537000000000000      8.590350000000001
C      -8.355350000000000      1.301640000000000      7.971860000000000
C      -8.449450000000001      0.838780000000000      6.679300000000000
N      -7.588860000000000     -0.178680000000000      6.500760000000000
C      -9.362880000000001      1.335170000000000      5.575040000000000
N      -9.017740000000000      0.677150000000000      4.297210000000000
C      -9.738000000000000      0.994800000000000      3.051820000000000
H      -7.037790000000000      0.631170000000000      9.611610000000001
H      -6.164700000000000     -1.129760000000000      7.800250000000000
H      -8.926209999999999      2.109420000000000      8.411880000000000
H      -9.225460000000000      2.429080000000000      5.475710000000000
H     -10.407460000000000      1.104150000000000      5.869280000000000
C      -9.482760000000001      2.463840000000000      2.664120000000000
C      -9.200749999999999      0.093070000000000      1.925580000000000
C     -11.246880000000001      0.738830000000000      3.213810000000000
H      -8.392170000000000      2.642970000000000      2.538460000000000
H      -9.992260000000000      2.713810000000000      1.709270000000000
H      -9.863640000000000      3.157800000000000      3.440350000000000
H      -9.373430000000001     -0.978420000000000      2.162860000000000
H      -9.711710000000000      0.321020000000000      0.963480000000000
H      -8.110150000000001      0.250120000000000      1.781740000000000
H     -11.429800000000000     -0.320380000000000      3.496060000000000
H     -11.681110000000000      1.396290000000000      3.994490000000000
H     -11.781540000000000      0.948780000000000      2.262480000000000

-C 0
6-31g(d,p)
****
-H 0
6-31g(d,p)
****
-Mg 0
6-31g(d,p)
****
-N 0
6-31+g(d,p)
****
-Na 0
6-31g(d,p)
****
-O 0
6-31+g(d,p)
****


