%chk=lowest10_c1_a2_speciation7_speciationDFT2_speciationDFT96_rank04_E229.52.chk
%nprocshared=20
%mem=40GB
#p opt=loose PM7/gen scf=xqc 

lowest10_c1_a2_speciation7_speciationDFT2_speciationDFT96_rank04_E229.52 DFT input

0 1
Mg      0.404910000000000     -0.299810000000000      0.197530000000000
C      -2.737710000000000     -1.068660000000000      1.523010000000000
C      -2.028780000000000      1.169740000000000      1.951480000000000
O      -1.857620000000000     -0.010950000000000      1.190450000000000
C      -4.200320000000000     -0.768820000000000      1.210850000000000
C      -1.732760000000000      0.987780000000000      3.437800000000000
H      -2.437030000000000     -1.933200000000000      0.892430000000000
H      -2.614340000000000     -1.404660000000000      2.570080000000000
H      -1.282830000000000      1.896640000000000      1.573280000000000
H      -3.014270000000000      1.643920000000000      1.768900000000000
H      -0.738550000000000      0.514490000000000      3.575310000000000
H      -1.727200000000000      1.981990000000000      3.931200000000000
H      -2.513100000000000      0.368610000000000      3.922120000000000
H      -4.317180000000000     -0.452240000000000      0.154990000000000
H      -4.799310000000000     -1.688820000000000      1.376590000000000
H      -4.588510000000000      0.021760000000000      1.882640000000000
H       0.153520000000000     -3.144630000000000      0.986230000000000
C       0.539820000000000     -2.279220000000000      2.966990000000000
C       0.783860000000000     -2.374500000000000      1.476770000000000
C       0.926050000000000     -3.592060000000000      3.625650000000000
H       1.143420000000000     -1.449780000000000      3.389630000000000
H      -0.530280000000000     -2.060850000000000      3.149320000000000
H       0.316170000000000     -4.412390000000000      3.188220000000000
H       2.001700000000000     -3.793960000000000      3.429910000000000
C       0.688480000000000     -3.532700000000000      5.125900000000000
H       1.859890000000000     -2.497920000000000      1.235370000000000
H       1.299520000000000     -2.722650000000000      5.578430000000000
H      -0.385920000000000     -3.342920000000000      5.335940000000000
H       0.980700000000000     -4.502690000000000      5.576260000000000
C       0.926280000000000      1.181000000000000     -4.455110000000000
C       2.192310000000000      1.600640000000000     -4.130280000000000
C       2.148660000000000      2.098110000000000     -2.833570000000000
C       0.898530000000000      1.968450000000000     -2.372960000000000
N       0.075750000000000      1.410950000000000     -3.370590000000000
C       0.332800000000000      2.393670000000000     -1.034430000000000
N       0.816470000000000      1.660210000000000      0.149520000000000
C       2.087190000000000      1.924260000000000      0.837060000000000
H       3.051260000000000      1.546780000000000     -4.784830000000000
H       0.614790000000000      0.740980000000000     -5.393550000000000
H       2.991530000000000      2.523960000000000     -2.315870000000000
H      -0.758180000000000      2.186960000000000     -1.082610000000000
H       0.430060000000000      3.481980000000000     -0.895780000000000
C       2.504750000000000      3.389730000000000      0.687880000000000
C       1.865660000000000      1.627850000000000      2.333520000000000
C       3.180490000000000      0.959910000000000      0.333080000000000
H       1.688920000000000      4.044330000000000      1.066180000000000
H       3.427170000000000      3.592460000000000      1.267080000000000
H       2.696160000000000      3.637310000000000     -0.372450000000000
H       1.543860000000000      0.576720000000000      2.476880000000000
H       2.799270000000000      1.781220000000000      2.916430000000000
H       1.072380000000000      2.281110000000000      2.755110000000000
H       2.906480000000000     -0.098230000000000      0.542610000000000
H       3.344090000000000      1.039880000000000     -0.750610000000000
H       4.144610000000000      1.168000000000000      0.843830000000000
C      -0.099810000000000     -1.750020000000000     -2.561530000000000
C      -2.048890000000000     -0.537830000000000     -2.011140000000000
O      -0.893120000000000     -1.195360000000000     -1.530610000000000
C       1.383550000000000     -1.618990000000000     -2.207710000000000
C      -3.123450000000000     -1.531240000000000     -2.400160000000000
H      -0.344400000000000     -2.827540000000000     -2.650120000000000
H      -0.253900000000000     -1.260220000000000     -3.547050000000000
H      -2.434990000000000      0.112820000000000     -1.201550000000000
H      -1.848560000000000      0.147390000000000     -2.850680000000000
H      -3.356890000000000     -2.189510000000000     -1.538690000000000
H      -4.034970000000000     -0.976610000000000     -2.704330000000000
H      -2.767400000000000     -2.142070000000000     -3.254180000000000
H       1.681210000000000     -0.558730000000000     -2.115900000000000
H       1.610550000000000     -2.119550000000000     -1.245110000000000
H       2.002590000000000     -2.083100000000000     -3.002800000000000
Na      2.358900000000000      8.885080000000000     -5.543580000000000
C       3.850200000000000     10.094980000000000     -2.994150000000000
C       4.572860000000000      7.868550000000000     -3.153380000000000
O       3.500720000000000      8.770980000000000     -3.348970000000000
C       4.444530000000000     10.838460000000000     -4.186370000000000
C       4.545540000000000      7.274960000000000     -1.746910000000000
H       2.921990000000000     10.620100000000001     -2.684170000000000
H       4.536130000000000     10.138339999999999     -2.118400000000000
H       4.456000000000000      7.041320000000000     -3.885660000000000
H       5.564120000000000      8.328840000000000     -3.362070000000000
H       3.590650000000000      6.738020000000000     -1.568970000000000
H       5.381370000000000      6.552900000000000     -1.636150000000000
H       4.661350000000000      8.071350000000001     -0.983210000000000
H       3.721270000000000     10.853840000000000     -5.028450000000000
H       4.674920000000000     11.883920000000000     -3.893570000000000
H       5.381600000000000     10.350420000000000     -4.523470000000000
C       5.226440000000000      8.244450000000001     -7.173250000000000
C       3.355420000000000      8.189480000000000     -8.649640000000000
O       3.816730000000000      8.240539999999999     -7.310990000000000
C       5.903020000000000      9.469560000000000     -7.789230000000000
C       3.747420000000000      6.906570000000000     -9.382660000000000
H       5.434550000000000      8.278840000000001     -6.083290000000000
H       5.678170000000000      7.296690000000000     -7.531080000000000
H       2.245460000000000      8.203900000000001     -8.599690000000001
H       3.637150000000000      9.098120000000000     -9.220929999999999
H       3.431590000000000      6.020080000000000     -8.793350000000000
H       3.243500000000000      6.881120000000000    -10.371440000000000
H       4.841010000000000      6.868310000000000     -9.560650000000001
H       5.447960000000000     10.399850000000001     -7.388720000000000
H       6.982960000000000      9.456730000000000     -7.531810000000000
H       5.820930000000000      9.457390000000000     -8.894760000000000
Na      1.603050000000000      7.793130000000000     -2.269830000000000
C      -0.515580000000000      8.360730000000000     -4.768840000000000
C       0.473820000000000      6.243400000000000     -4.912680000000000
O       0.622940000000000      7.578330000000000     -4.472700000000000
C      -0.446410000000000      9.650630000000000     -3.960190000000000
C       0.731160000000000      6.104640000000000     -6.411900000000000
H      -0.523340000000000      8.631970000000001     -5.846230000000000
H      -1.462790000000000      7.846150000000000     -4.491020000000000
H       1.237230000000000      5.635420000000000     -4.381060000000000
H      -0.511860000000000      5.813150000000000     -4.628560000000000
H       1.742860000000000      6.485010000000000     -6.662400000000000
H       0.672130000000000      5.033720000000000     -6.698510000000000
H      -0.026830000000000      6.664530000000000     -6.996770000000000
H       0.486090000000000     10.205890000000000     -4.198520000000000
H      -1.318230000000000     10.294269999999999     -4.200490000000000
H      -0.461110000000000      9.422590000000000     -2.873970000000000
C      -0.926940000000000      7.316630000000000     -0.183510000000000
C       0.289580000000000      9.167520000000000      0.492560000000000
O       0.119840000000000      8.197490000000000     -0.511910000000000
C      -1.038250000000000      6.280420000000000     -1.293390000000000
C       1.412930000000000     10.101690000000000      0.062660000000000
H      -0.712740000000000      6.780390000000000      0.768560000000000
H      -1.895340000000000      7.861860000000000     -0.122020000000000
H      -0.634890000000000      9.775110000000000      0.617140000000000
H       0.583450000000000      8.692349999999999      1.455540000000000
H       1.148590000000000     10.592499999999999     -0.898480000000000
H       1.577090000000000     10.883580000000000      0.832870000000000
H       2.354610000000000      9.527260000000000     -0.075480000000000
H      -0.082940000000000      5.722840000000000     -1.387690000000000
H      -1.857940000000000      5.565570000000000     -1.072710000000000
H      -1.250130000000000      6.783040000000000     -2.259460000000000
Mg      1.314670000000000     16.341259999999998     -6.255520000000000
H       4.164840000000000     17.462170000000000     -6.009630000000000
C       3.251150000000000     18.262270000000001     -4.181090000000000
C       3.226610000000000     17.946339999999999     -5.670610000000000
C       3.318080000000000     17.010780000000000     -3.290280000000000
H       4.113590000000000     18.929089999999999     -3.972770000000000
H       2.315530000000000     18.806680000000000     -3.928140000000000
H       3.335820000000000     17.350680000000001     -2.231800000000000
H       2.410010000000000     16.388290000000001     -3.436750000000000
C       4.552490000000000     16.145579999999999     -3.540260000000000
H       3.047370000000000     18.863289999999999     -6.268280000000000
H       4.523000000000000     15.704219999999999     -4.558100000000000
H       5.478330000000000     16.746110000000002     -3.420740000000000
H       4.570000000000000     15.309500000000000     -2.809280000000000
C      -0.385800000000000     15.410790000000000     -3.741560000000000
C      -1.244250000000000     14.338590000000000     -3.553480000000000
C      -1.257480000000000     13.624070000000000     -4.741340000000000
C      -0.395600000000000     14.274229999999999     -5.594100000000000
N       0.112780000000000     15.359019999999999     -4.982590000000000
C      -0.034530000000000     13.903829999999999     -7.018100000000000
N       1.106240000000000     14.724720000000000     -7.476120000000000
C       1.668380000000000     14.557420000000000     -8.827769999999999
H      -1.800680000000000     14.106800000000000     -2.656960000000000
H      -0.150590000000000     16.178450000000002     -3.012970000000000
H      -1.822690000000000     12.725910000000001     -4.955460000000000
H      -0.931290000000000     14.073620000000000     -7.649970000000000
H       0.252110000000000     12.834880000000000     -7.039230000000000
C       0.589470000000000     14.764810000000001     -9.906269999999999
C       2.780730000000000     15.602969999999999     -9.029050000000000
C       2.288980000000000     13.152450000000000     -8.958430000000000
H       0.139990000000000     15.776740000000000     -9.814909999999999
H       1.031570000000000     14.664420000000000    -10.921220000000000
H      -0.215480000000000     14.006790000000001     -9.817430000000000
H       3.575470000000000     15.486879999999999     -8.260750000000000
H       3.248950000000000     15.488479999999999    -10.032220000000001
H       2.371610000000000     16.633299999999998     -8.953510000000000
H       3.072510000000000     13.006150000000000     -8.182499999999999
H       1.523630000000000     12.359690000000001     -8.834830000000000
H       2.754500000000000     13.017390000000001     -9.957800000000001

-C 0
6-31g(d,p)
****
-H 0
6-31g(d,p)
****
-Mg 0
6-31g(d,p)
****
-N 0
6-31+g(d,p)
****
-Na 0
6-31g(d,p)
****
-O 0
6-31+g(d,p)
****


