%chk=lowest10_c1_a2_speciation0_speciationDFT2_speciationDFT96_rank08_E187.33.chk
%nprocshared=20
%mem=40GB
#p opt=loose PM7/gen scf=xqc 

lowest10_c1_a2_speciation0_speciationDFT2_speciationDFT96_rank08_E187.33 DFT input

0 1
Mg     -0.162540000000000     -0.205670000000000     -0.383450000000000
C       3.270610000000000     -0.140780000000000     -1.011420000000000
C       2.308870000000000      2.017220000000000     -0.670970000000000
O       2.176490000000000      0.615730000000000     -0.527530000000000
C       4.560270000000000      0.078670000000000     -0.227390000000000
C       2.376750000000000      2.480010000000000     -2.123910000000000
H       2.988290000000000     -1.208850000000000     -0.888730000000000
H       3.434110000000000      0.003010000000000     -2.096320000000000
H       1.387790000000000      2.463250000000000     -0.246120000000000
H       3.137780000000000      2.422430000000000     -0.056110000000000
H       1.529540000000000      2.055600000000000     -2.701360000000000
H       2.311960000000000      3.587600000000000     -2.155380000000000
H       3.335860000000000      2.178800000000000     -2.588880000000000
H       4.391360000000000     -0.086290000000000      0.855680000000000
H       5.325120000000000     -0.642780000000000     -0.584060000000000
H       4.947630000000000      1.103140000000000     -0.393030000000000
H       0.719020000000000     -2.406450000000000     -2.149980000000000
C       0.632450000000000     -0.793030000000000     -3.637840000000000
C       0.090830000000000     -1.538420000000000     -2.437890000000000
C       0.621460000000000     -1.711440000000000     -4.847010000000000
H       0.005530000000000      0.101110000000000     -3.833670000000000
H       1.665050000000000     -0.455550000000000     -3.423750000000000
H       1.249740000000000     -2.603340000000000     -4.632460000000000
H      -0.422310000000000     -2.040080000000000     -5.043630000000000
C       1.164810000000000     -0.995210000000000     -6.072710000000000
H      -0.976620000000000     -1.814950000000000     -2.561830000000000
H       0.540350000000000     -0.106070000000000     -6.304650000000000
H       2.212390000000000     -0.671270000000000     -5.893550000000000
H       1.142190000000000     -1.690090000000000     -6.936230000000000
C      -1.884690000000000     -0.886880000000000      4.115940000000000
C      -3.126290000000000     -0.468690000000000      3.689690000000000
C      -2.913730000000000      0.543770000000000      2.766590000000000
C      -1.595480000000000      0.683760000000000      2.652430000000000
N      -0.965690000000000     -0.218030000000000      3.524540000000000
C      -0.811550000000000      1.672030000000000      1.810200000000000
N      -0.895320000000000      1.507150000000000      0.347890000000000
C      -2.012730000000000      1.970680000000000     -0.486620000000000
H      -4.079210000000000     -0.853810000000000      4.030520000000000
H      -1.676800000000000     -1.660660000000000      4.840860000000000
H      -3.684150000000000      1.103150000000000      2.266370000000000
H       0.258270000000000      1.515040000000000      2.067220000000000
H      -1.046960000000000      2.707270000000000      2.101920000000000
C      -2.688800000000000      3.200360000000000      0.124910000000000
C      -1.426870000000000      2.366260000000000     -1.856710000000000
C      -3.015130000000000      0.823660000000000     -0.728990000000000
H      -1.930200000000000      3.999490000000000      0.275550000000000
H      -3.484130000000000      3.580640000000000     -0.546380000000000
H      -3.143740000000000      2.953880000000000      1.101520000000000
H      -0.912010000000000      1.502250000000000     -2.322590000000000
H      -2.225010000000000      2.702900000000000     -2.553010000000000
H      -0.681560000000000      3.182920000000000     -1.750580000000000
H      -2.531940000000000     -0.021160000000000     -1.268680000000000
H      -3.421650000000000      0.415510000000000      0.206490000000000
H      -3.866200000000000      1.179090000000000     -1.348070000000000
C      -0.038980000000000     -2.674530000000000      1.580580000000000
C       1.747000000000000     -1.227760000000000      2.112930000000000
O       0.853840000000000     -1.681450000000000      1.115770000000000
C      -1.411360000000000     -2.490080000000000      0.928800000000000
C       2.862880000000000     -2.227010000000000      2.341760000000000
H       0.357750000000000     -3.666950000000000      1.286910000000000
H      -0.184680000000000     -2.654370000000000      2.682000000000000
H       2.188280000000000     -0.271380000000000      1.768850000000000
H       1.249660000000000     -0.979810000000000      3.066310000000000
H       3.384550000000000     -2.433270000000000      1.384640000000000
H       3.582160000000000     -1.807110000000000      3.074560000000000
H       2.438310000000000     -3.167930000000000      2.746140000000000
H      -1.854830000000000     -1.514420000000000      1.197140000000000
H      -1.338510000000000     -2.535800000000000     -0.176180000000000
H      -2.101080000000000     -3.288100000000000      1.272370000000000
Na     -3.533830000000000     12.598950000000000      1.784170000000000
C      -2.066680000000000     11.232279999999999      4.381870000000000
C      -2.812250000000000     13.350560000000000      4.896460000000000
O      -2.072920000000000     12.582879999999999      3.970900000000000
C      -1.260620000000000     10.411379999999999      3.385570000000000
C      -2.828930000000000     14.803260000000000      4.440910000000000
H      -1.584210000000000     11.123799999999999      5.380080000000000
H      -3.101370000000000     10.821199999999999      4.400760000000000
H      -3.868130000000000     12.999490000000000      4.948190000000000
H      -2.339400000000000     13.315640000000000      5.904290000000000
H      -3.304660000000000     14.885550000000000      3.440520000000000
H      -3.407190000000000     15.416820000000000      5.164070000000000
H      -1.792520000000000     15.198720000000000      4.383720000000000
H      -0.215180000000000     10.784160000000000      3.339990000000000
H      -1.249210000000000      9.346030000000001      3.699770000000000
H      -1.715400000000000     10.483290000000000      2.374590000000000
Na      0.408390000000000     13.378000000000000      4.346790000000000
Mg     -2.154750000000000      6.277610000000000      5.650920000000000
H      -1.962110000000000      3.207540000000000      5.486900000000000
C       0.142210000000000      3.738200000000000      5.820530000000000
C      -1.208960000000000      3.949330000000000      5.152320000000000
C       0.113790000000000      3.976080000000000      7.338980000000000
H       0.494180000000000      2.709530000000000      5.596650000000000
H       0.862790000000000      4.461080000000000      5.379880000000000
H       1.138830000000000      3.794150000000000      7.728970000000000
H      -0.154210000000000      5.032270000000000      7.555130000000000
C      -0.856700000000000      3.060890000000000      8.083800000000000
H      -1.115450000000000      3.910680000000000      4.050550000000000
H      -1.905090000000000      3.281510000000000      7.793940000000000
H      -0.627090000000000      1.996030000000000      7.870980000000000
H      -0.763300000000000      3.237370000000000      9.176349999999999
C      -0.323040000000000      8.011270000000000      7.581460000000000
C      -0.599090000000000      9.126700000000000      8.354680000000000
C      -1.941930000000000      9.421840000000000      8.174250000000001
C      -2.431610000000000      8.462580000000001      7.315750000000000
N      -1.447330000000000      7.628910000000000      6.954460000000000
C      -3.850670000000000      8.314980000000000      6.799380000000000
N      -3.996030000000000      7.016900000000000      6.106360000000000
C      -5.284010000000000      6.613680000000000      5.514230000000000
H       0.099730000000000      9.668189999999999      8.977710000000000
H       0.635660000000000      7.518600000000000      7.483500000000000
H      -2.498070000000000     10.231629999999999      8.625690000000001
H      -4.051620000000000      9.162470000000001      6.113030000000000
H      -4.542280000000000      8.347960000000000      7.662150000000000
C      -5.772460000000000      7.654300000000000      4.490640000000000
C      -5.093730000000000      5.262390000000000      4.800340000000000
C      -6.331330000000000      6.432560000000000      6.630320000000000
H      -5.019270000000000      7.788170000000000      3.685030000000000
H      -6.729410000000000      7.325400000000000      4.030490000000000
H      -5.956140000000000      8.635380000000000      4.974760000000000
H      -4.733830000000000      4.487380000000000      5.511190000000000
H      -6.055620000000000      4.911700000000000      4.363740000000000
H      -4.352040000000000      5.351560000000000      3.977910000000000
H      -5.979980000000000      5.675940000000000      7.366080000000000
H      -6.515930000000000      7.383780000000000      7.169420000000000
H      -7.301240000000000      6.090420000000000      6.210740000000000

-C 0
6-31g(d,p)
****
-H 0
6-31g(d,p)
****
-Mg 0
6-31g(d,p)
****
-N 0
6-31+g(d,p)
****
-Na 0
6-31g(d,p)
****
-O 0
6-31+g(d,p)
****


