%chk=lowest10_c1_a2_speciation7_speciationDFT2_speciationDFT96_rank07_E229.65.chk
%nprocshared=20
%mem=40GB
#p opt=loose PM7/gen scf=xqc 

lowest10_c1_a2_speciation7_speciationDFT2_speciationDFT96_rank07_E229.65 DFT input

0 1
Mg      0.405010000000000     -0.299810000000000      0.197550000000000
C      -2.737750000000000     -1.068800000000000      1.523040000000000
C      -2.028760000000000      1.169530000000000      1.951580000000000
O      -1.857590000000000     -0.011140000000000      1.190530000000000
C      -4.200330000000000     -0.768880000000000      1.210860000000000
C      -1.732750000000000      0.987610000000000      3.437900000000000
H      -2.437080000000000     -1.933330000000000      0.892450000000000
H      -2.614400000000000     -1.404790000000000      2.570110000000000
H      -1.282760000000000      1.896370000000000      1.573390000000000
H      -3.014230000000000      1.643730000000000      1.768990000000000
H      -0.738530000000000      0.514360000000000      3.575410000000000
H      -1.727200000000000      1.981840000000000      3.931260000000000
H      -2.513100000000000      0.368470000000000      3.922220000000000
H      -4.317170000000000     -0.452280000000000      0.155000000000000
H      -4.799360000000000     -1.688860000000000      1.376590000000000
H      -4.588520000000000      0.021700000000000      1.882650000000000
H       0.153510000000000     -3.144630000000000      0.986230000000000
C       0.539830000000000     -2.279220000000000      2.966990000000000
C       0.783860000000000     -2.374500000000000      1.476770000000000
C       0.926050000000000     -3.592060000000000      3.625650000000000
H       1.143420000000000     -1.449770000000000      3.389620000000000
H      -0.530280000000000     -2.060850000000000      3.149320000000000
H       0.316180000000000     -4.412390000000000      3.188220000000000
H       2.001700000000000     -3.793960000000000      3.429910000000000
C       0.688480000000000     -3.532700000000000      5.125900000000000
H       1.859890000000000     -2.497920000000000      1.235370000000000
H       1.299520000000000     -2.722650000000000      5.578430000000000
H      -0.385920000000000     -3.342920000000000      5.335940000000000
H       0.980700000000000     -4.502690000000000      5.576260000000000
C       0.926510000000000      1.180730000000000     -4.454640000000000
C       2.192440000000000      1.600760000000000     -4.129920000000000
C       2.148690000000000      2.098700000000000     -2.833390000000000
C       0.898670000000000      1.968770000000000     -2.372760000000000
N       0.075970000000000      1.410850000000000     -3.370220000000000
C       0.332880000000000      2.393600000000000     -1.034270000000000
N       0.816740000000000      1.660170000000000      0.149550000000000
C       2.087410000000000      1.924390000000000      0.837060000000000
H       3.051390000000000      1.546770000000000     -4.784460000000000
H       0.615060000000000      0.740340000000000     -5.392960000000000
H       2.991440000000000      2.524750000000000     -2.315740000000000
H      -0.757940000000000      2.186250000000000     -1.082580000000000
H       0.429240000000000      3.481770000000000     -0.895110000000000
C       2.504990000000000      3.389910000000000      0.687700000000000
C       1.865840000000000      1.627980000000000      2.333510000000000
C       3.180640000000000      0.960000000000000      0.333090000000000
H       1.689320000000000      4.044720000000000      1.065790000000000
H       3.427380000000000      3.592870000000000      1.266860000000000
H       2.696200000000000      3.637220000000000     -0.372660000000000
H       1.544000000000000      0.576830000000000      2.476840000000000
H       2.799410000000000      1.781320000000000      2.916460000000000
H       1.072520000000000      2.281190000000000      2.755080000000000
H       2.906560000000000     -0.098130000000000      0.542620000000000
H       3.344170000000000      1.039970000000000     -0.750640000000000
H       4.144770000000000      1.168040000000000      0.843830000000000
C      -0.099790000000000     -1.750060000000000     -2.561510000000000
C      -2.048880000000000     -0.537890000000000     -2.011130000000000
O      -0.893120000000000     -1.195420000000000     -1.530580000000000
C       1.383550000000000     -1.618990000000000     -2.207700000000000
C      -3.123450000000000     -1.531290000000000     -2.400160000000000
H      -0.344380000000000     -2.827580000000000     -2.650100000000000
H      -0.253900000000000     -1.260260000000000     -3.547030000000000
H      -2.434990000000000      0.112750000000000     -1.201540000000000
H      -1.848540000000000      0.147330000000000     -2.850670000000000
H      -3.356900000000000     -2.189550000000000     -1.538690000000000
H      -4.034970000000000     -0.976650000000000     -2.704320000000000
H      -2.767400000000000     -2.142110000000000     -3.254180000000000
H       1.681190000000000     -0.558710000000000     -2.115890000000000
H       1.610570000000000     -2.119550000000000     -1.245100000000000
H       2.002600000000000     -2.083100000000000     -3.002780000000000
Na     -2.485540000000000     12.896369999999999     -4.021800000000000
C      -1.219570000000000     14.499219999999999     -1.569130000000000
C      -3.319750000000000     15.474090000000000     -1.946620000000000
O      -2.191630000000000     14.853770000000001     -2.533610000000000
C      -1.475420000000000     13.095060000000000     -1.030560000000000
C      -3.141950000000000     16.988710000000001     -1.875020000000000
H      -0.227480000000000     14.505220000000000     -2.068260000000000
H      -1.150750000000000     15.236000000000001     -0.737420000000000
H      -4.198830000000000     15.253920000000001     -2.589240000000000
H      -3.560600000000000     15.062980000000000     -0.941190000000000
H      -2.989710000000000     17.411059999999999     -2.889930000000000
H      -4.053490000000000     17.445760000000000     -1.436320000000000
H      -2.271880000000000     17.251870000000000     -1.238990000000000
H      -1.466990000000000     12.358200000000000     -1.860860000000000
H      -0.679750000000000     12.825920000000000     -0.305160000000000
H      -2.455990000000000     13.047230000000001     -0.514680000000000
C      -5.105460000000000     11.805540000000001     -2.223530000000000
C      -4.850470000000000     10.554420000000000     -4.236780000000000
O      -4.463170000000000     11.688179999999999     -3.480500000000000
C      -4.791640000000000     10.659560000000001     -1.261100000000000
C      -6.326060000000000     10.561070000000001     -4.636070000000000
H      -4.711760000000000     12.732290000000001     -1.755940000000000
H      -6.197090000000000     11.969550000000000     -2.332180000000000
H      -4.263050000000000     10.590470000000000     -5.179300000000000
H      -4.557220000000000      9.605350000000000     -3.742170000000000
H      -6.577830000000000     11.514670000000001     -5.146120000000000
H      -6.521360000000000      9.717499999999999     -5.330710000000000
H      -6.978640000000000     10.426069999999999     -3.750060000000000
H      -3.692960000000000     10.541290000000000     -1.152250000000000
H      -5.229770000000000     10.888940000000000     -0.267050000000000
H      -5.238440000000000      9.708240000000000     -1.613850000000000
Na     -1.508470000000000     16.276969999999999     -4.330900000000000
C      -1.105070000000000     13.828749999999999     -6.544810000000000
C      -3.250010000000000     14.761649999999999     -6.640470000000000
O      -2.132970000000000     14.475619999999999     -5.823300000000000
C       0.177690000000000     13.884670000000000     -5.724150000000000
C      -4.132010000000000     13.532780000000001     -6.852530000000000
H      -1.364090000000000     12.760109999999999     -6.703670000000000
H      -0.897360000000000     14.327059999999999     -7.518370000000000
H      -3.857360000000000     15.525690000000001     -6.109350000000000
H      -2.956930000000000     15.223020000000000     -7.609350000000000
H      -4.461320000000000     13.125999999999999     -5.874280000000000
H      -5.029720000000000     13.820150000000000     -7.439080000000000
H      -3.586490000000000     12.746470000000000     -7.412910000000000
H       0.024540000000000     13.400720000000000     -4.735720000000000
H       0.992370000000000     13.355000000000000     -6.260540000000000
H       0.483840000000000     14.939560000000000     -5.564120000000000
C       0.302850000000000     18.322089999999999     -6.206820000000000
C       1.375010000000000     17.982520000000001     -4.182570000000000
O       0.297060000000000     17.597930000000002     -5.000560000000000
C      -0.900130000000000     17.880980000000001     -7.029970000000000
C       1.327810000000000     17.143249999999998     -2.912660000000000
H       0.207970000000000     19.414970000000000     -6.016210000000000
H       1.222480000000000     18.101070000000000     -6.793640000000000
H       2.346890000000000     17.786600000000000     -4.688970000000000
H       1.288880000000000     19.054099999999998     -3.893100000000000
H       1.411860000000000     16.065480000000001     -3.169350000000000
H       2.165620000000000     17.419409999999999     -2.239380000000000
H       0.366300000000000     17.310919999999999     -2.380510000000000
H      -1.840010000000000     18.086099999999998     -6.473220000000000
H      -0.925600000000000     18.426349999999999     -7.995950000000000
H      -0.837660000000000     16.792149999999999     -7.234770000000000
Mg      3.320840000000000      8.551629999999999     -1.875470000000000
H       2.842030000000000      8.203550000000000      1.139380000000000
C       4.690840000000000      9.387259999999999      1.151550000000000
C       3.821120000000000      8.254940000000000      0.621370000000000
C       4.104670000000000     10.784660000000001      0.890300000000000
H       4.850060000000000      9.234510000000000      2.239270000000000
H       5.676500000000000      9.334180000000000      0.640250000000000
H       4.809150000000000     11.531359999999999      1.317440000000000
H       4.028440000000000     10.969200000000001     -0.202250000000000
C       2.730410000000000     11.001049999999999      1.522240000000000
H       4.339450000000000      7.278700000000000      0.713770000000000
H       1.973330000000000     10.340320000000000      1.051170000000000
H       2.769670000000000     10.804399999999999      2.613970000000000
H       2.411270000000000     12.052199999999999      1.358090000000000
C       4.561180000000000     11.194170000000000     -3.122780000000000
C       4.267610000000000     11.893090000000001     -4.283460000000000
C       3.224080000000000     11.221439999999999     -4.901290000000000
C       2.911730000000000     10.157650000000000     -4.086600000000000
N       3.735870000000000     10.145110000000001     -3.023670000000000
C       1.837020000000000      9.109209999999999     -4.290360000000000
N       1.685350000000000      8.300800000000001     -3.062160000000000
C       0.692960000000000      7.214540000000000     -2.984710000000000
H       4.760090000000000     12.785489999999999     -4.641580000000000
H       5.334780000000000     11.441480000000000     -2.404530000000000
H       2.740380000000000     11.485139999999999     -5.833230000000000
H       2.138590000000000      8.477690000000001     -5.151990000000000
H       0.882580000000000      9.625420000000000     -4.509310000000000
C       0.920430000000000      6.174960000000000     -4.097560000000000
C       0.833040000000000      6.519040000000000     -1.618740000000000
C      -0.727650000000000      7.804430000000000     -3.088470000000000
H       1.943450000000000      5.747590000000000     -4.025490000000000
H       0.184820000000000      5.345930000000000     -4.010960000000000
H       0.792990000000000      6.630630000000000     -5.100950000000000
H       0.683570000000000      7.242640000000000     -0.788680000000000
H       0.072620000000000      5.715040000000000     -1.515060000000000
H       1.840730000000000      6.063700000000000     -1.507670000000000
H      -0.893170000000000      8.549790000000000     -2.279450000000000
H      -0.886230000000000      8.307630000000000     -4.063700000000000
H      -1.494800000000000      7.006770000000000     -2.993400000000000

-C 0
6-31g(d,p)
****
-H 0
6-31g(d,p)
****
-Mg 0
6-31g(d,p)
****
-N 0
6-31+g(d,p)
****
-Na 0
6-31g(d,p)
****
-O 0
6-31+g(d,p)
****


