%chk=lowest10_c1_a2_speciation0_speciationDFT37b_speciationDFT38_rank10_E162.60.chk
%nprocshared=20
%mem=40GB
#p opt=loose PM7/gen scf=xqc 

lowest10_c1_a2_speciation0_speciationDFT37b_speciationDFT38_rank10_E162.60 DFT input

0 1
Mg      0.889090000000000     -0.419270000000000     -0.017310000000000
C      -1.566430000000000      0.715510000000000      1.856070000000000
C      -0.417150000000000      2.536990000000000      0.812090000000000
O      -0.415110000000000      1.171540000000000      1.167780000000000
C      -2.905990000000000      1.101070000000000      1.224050000000000
C      -0.324630000000000      3.450640000000000      2.023660000000000
H      -1.518930000000000     -0.390630000000000      1.824620000000000
H      -1.524430000000000      0.999990000000000      2.926860000000000
H       0.488400000000000      2.707110000000000      0.198940000000000
H      -1.260450000000000      2.797660000000000      0.142740000000000
H      -0.203560000000000      4.498320000000000      1.679080000000000
H       0.550420000000000      3.168780000000000      2.643910000000000
H      -1.247430000000000      3.374640000000000      2.631200000000000
H      -2.927680000000000      0.826480000000000      0.156640000000000
H      -3.095460000000000      2.187750000000000      1.333340000000000
H      -3.724170000000000      0.550770000000000      1.730020000000000
H       2.872440000000000     -0.048600000000000      1.724950000000000
C       3.798900000000000      0.481600000000000     -0.191860000000000
C       2.894820000000000     -0.409620000000000      0.676970000000000
C       3.341160000000000      1.946760000000000     -0.334560000000000
H       4.822490000000000      0.461980000000000      0.236290000000000
H       3.836680000000000      0.049280000000000     -1.214780000000000
H       4.076440000000000      2.481120000000000     -0.977950000000000
H       2.361810000000000      1.984900000000000     -0.852610000000000
C       3.251660000000000      2.696130000000000      0.994960000000000
H       3.256050000000000     -1.455500000000000      0.655550000000000
H       2.495290000000000      2.229080000000000      1.654450000000000
H       4.234720000000000      2.698340000000000      1.509420000000000
H       2.944690000000000      3.749200000000000      0.810580000000000
C      -0.994690000000000      1.904600000000000     -2.574890000000000
C       0.234150000000000      1.345400000000000     -2.840900000000000
C       0.173270000000000      0.015050000000000     -2.464500000000000
C      -1.043050000000000     -0.221020000000000     -1.960710000000000
N      -1.846650000000000      0.934460000000000     -2.029870000000000
C      -1.508480000000000     -1.517190000000000     -1.351690000000000
N      -0.647670000000000     -1.841360000000000     -0.207320000000000
C      -0.810800000000000     -3.151980000000000      0.466890000000000
H       1.088990000000000      1.869010000000000     -3.247170000000000
H      -1.271080000000000      2.936340000000000     -2.739450000000000
H       0.988940000000000     -0.696370000000000     -2.515940000000000
H      -1.471880000000000     -2.308370000000000     -2.123240000000000
H      -2.553630000000000     -1.382650000000000     -1.001890000000000
C      -0.394790000000000     -4.302170000000000     -0.471010000000000
C       0.088810000000000     -3.180690000000000      1.713440000000000
C      -2.276650000000000     -3.362960000000000      0.917270000000000
H       0.664380000000000     -4.186090000000000     -0.781590000000000
H      -0.510640000000000     -5.283290000000000      0.039870000000000
H      -1.029870000000000     -4.336600000000000     -1.379080000000000
H      -0.206220000000000     -2.387700000000000      2.432590000000000
H       0.010540000000000     -4.163030000000000      2.231730000000000
H       1.149850000000000     -3.020710000000000      1.429070000000000
H      -2.602110000000000     -2.547220000000000      1.597450000000000
H      -2.968450000000000     -3.392750000000000      0.049810000000000
H      -2.388740000000000     -4.327290000000000      1.460120000000000
Na      8.367220000000000      7.811970000000000     10.373860000000001
C       5.917420000000000      6.500180000000000      8.628700000000000
C       7.812010000000000      5.201440000000000      8.459410000000000
O       7.302440000000000      6.513260000000000      8.355580000000000
C       5.371750000000000      7.915300000000000      8.498950000000001
C       9.306900000000001      5.220550000000000      8.175459999999999
H       5.374310000000000      5.857900000000000      7.897970000000000
H       5.723810000000000      6.154800000000000      9.669820000000000
H       7.665900000000000      4.799320000000000      9.488099999999999
H       7.336240000000000      4.536470000000000      7.705620000000000
H       9.827790000000000      5.872110000000000      8.908759999999999
H       9.716440000000000      4.191020000000000      8.254780000000000
H       9.495910000000000      5.603680000000000      7.150110000000000
H       5.535460000000000      8.295389999999999      7.468090000000000
H       4.282190000000000      7.919260000000000      8.714100000000000
H       5.882250000000000      8.589499999999999      9.219250000000001
Na      7.425840000000000      7.013040000000000      5.770030000000000
Mg      4.429430000000000      0.684170000000000      8.530200000000001
C       2.635670000000000      1.838780000000000     10.941620000000000
C       4.569170000000000      0.709360000000000     11.757020000000001
O       3.507750000000000      0.729670000000000     10.824140000000000
C       3.314690000000000      3.194830000000000     10.742870000000000
C       4.089140000000000      0.385900000000000     13.164720000000001
H       1.898140000000000      1.734630000000000     10.122180000000000
H       2.041490000000000      1.800260000000000     11.876379999999999
H       5.253080000000000     -0.107930000000000     11.440670000000001
H       5.187350000000000      1.629390000000000     11.727169999999999
H       3.493770000000000     -0.551250000000000     13.149920000000000
H       4.966840000000000      0.250080000000000     13.829960000000000
H       3.471390000000000      1.215040000000000     13.563900000000000
H       3.941660000000000      3.183510000000000      9.829980000000001
H       2.537810000000000      3.980480000000000     10.636279999999999
H       3.943200000000000      3.454910000000000     11.617070000000000
H       6.221260000000000      2.470190000000000      7.849430000000000
C       7.333480000000000      0.646450000000000      8.257700000000000
C       6.270540000000000      1.667200000000000      8.610640000000000
C       6.991300000000000     -0.041150000000000      6.931650000000000
H       8.306509999999999      1.174680000000000      8.190899999999999
H       7.385250000000000     -0.123660000000000      9.059220000000000
H       6.059710000000000     -0.635000000000000      7.050270000000000
H       6.824210000000000      0.716100000000000      6.136290000000000
C       8.121950000000000     -0.961070000000000      6.490100000000000
H       6.449890000000000      2.103550000000000      9.614360000000000
H       9.042570000000000     -0.361930000000000      6.323240000000000
H       8.321920000000000     -1.735280000000000      7.260680000000000
H       7.846460000000000     -1.461390000000000      5.538090000000000
C       4.218360000000000     -2.794910000000000      6.862150000000000
C       4.376750000000000     -2.640820000000000      8.226610000000001
C       3.409550000000000     -1.744290000000000      8.638320000000000
C       2.738930000000000     -1.387310000000000      7.547620000000000
N       3.248050000000000     -2.071850000000000      6.432510000000000
C       1.596820000000000     -0.406340000000000      7.472960000000000
N       2.050140000000000      0.971460000000000      7.734980000000000
C       2.225100000000000      1.866960000000000      6.563980000000000
H       5.124370000000000     -3.118660000000000      8.848879999999999
H       4.815520000000000     -3.422710000000000      6.219640000000000
H       3.241850000000000     -1.400630000000000      9.646100000000001
H       0.839110000000000     -0.687980000000000      8.234660000000000
H       1.116850000000000     -0.499460000000000      6.484760000000000
C       0.873390000000000      2.126570000000000      5.867800000000000
C       2.756360000000000      3.219660000000000      7.078460000000000
C       3.252040000000000      1.304150000000000      5.558010000000000
H       0.133600000000000      2.509670000000000      6.602720000000000
H       0.993140000000000      2.882460000000000      5.063140000000000
H       0.460520000000000      1.216870000000000      5.391630000000000
H       3.750880000000000      3.096570000000000      7.553130000000000
H       2.873660000000000      3.946790000000000      6.244430000000000
H       2.061250000000000      3.658250000000000      7.826590000000000
H       4.247420000000000      1.187110000000000      6.036970000000000
H       2.934650000000000      0.320990000000000      5.159700000000000
H       3.367380000000000      1.994730000000000      4.693870000000000

-C 0
6-31g(d,p)
****
-H 0
6-31g(d,p)
****
-Mg 0
6-31g(d,p)
****
-N 0
6-31+g(d,p)
****
-Na 0
6-31g(d,p)
****
-O 0
6-31+g(d,p)
****


