%chk=lowest10_c1_a2_speciation0_speciationDFT96_speciationDFT96_rank02_E190.16.chk
%nprocshared=20
%mem=40GB
#p opt=loose PM7/gen scf=xqc 

lowest10_c1_a2_speciation0_speciationDFT96_speciationDFT96_rank02_E190.16 DFT input

0 1
Mg     -0.000970000000000      0.315220000000000     -0.380140000000000
C      -1.664230000000000     -2.694950000000000     -1.011780000000000
C       0.685220000000000     -2.941130000000000     -0.671620000000000
O      -0.461990000000000     -2.125110000000000     -0.528320000000000
C      -2.118900000000000     -3.921390000000000     -0.227160000000000
C       1.052370000000000     -3.230800000000000     -2.124630000000000
H      -2.448320000000000     -1.916670000000000     -0.889570000000000
H      -1.621410000000000     -2.909000000000000     -2.096600000000000
H       1.532290000000000     -2.367430000000000     -0.245920000000000
H       0.620810000000000     -3.862050000000000     -0.057500000000000
H       1.109430000000000     -2.284520000000000     -2.701370000000000
H       2.043470000000000     -3.729460000000000     -2.156130000000000
H       0.311600000000000     -3.909860000000000     -2.590470000000000
H      -2.177920000000000     -3.692010000000000      0.855750000000000
H      -3.125820000000000     -4.223650000000000     -0.584110000000000
H      -1.425290000000000     -4.769220000000000     -0.391890000000000
H      -2.351960000000000      0.649530000000000     -2.152520000000000
C      -0.910870000000000     -0.082270000000000     -3.638810000000000
C      -1.285580000000000      0.759380000000000     -2.438570000000000
C      -1.700580000000000      0.385950000000000     -4.848630000000000
H       0.176990000000000      0.013810000000000     -3.834450000000000
H      -1.134900000000000     -1.145290000000000     -3.424620000000000
H      -2.787230000000000      0.287700000000000     -4.634690000000000
H      -1.463510000000000      1.454130000000000     -5.045900000000000
C      -1.351450000000000     -0.443180000000000     -6.073900000000000
H      -0.992970000000000      1.822340000000000     -2.564420000000000
H      -0.269130000000000     -0.346860000000000     -6.305500000000000
H      -1.594620000000000     -1.512330000000000     -5.894340000000000
H      -1.941670000000000     -0.076650000000000     -6.937840000000000
C       0.269000000000000      2.146550000000000      4.114790000000000
C       1.253200000000000      3.012300000000000      3.689620000000000
C       2.024280000000000      2.321290000000000      2.767640000000000
C       1.486030000000000      1.109840000000000      2.653310000000000
N       0.388370000000000      1.016420000000000      3.523790000000000
C       1.952380000000000     -0.064160000000000      1.814080000000000
N       1.850760000000000      0.088620000000000      0.350460000000000
C       2.808360000000000      0.825670000000000     -0.486280000000000
H       1.396970000000000      4.029690000000000      4.030780000000000
H      -0.505430000000000      2.354000000000000      4.839430000000000
H       2.895220000000000      2.707710000000000      2.268740000000000
H       1.280270000000000     -0.911540000000000      2.070520000000000
H       2.967520000000000     -0.377990000000000      2.113700000000000
C       4.210990000000000      0.798180000000000      0.123270000000000
C       2.856940000000000      0.120480000000000     -1.856170000000000
C       2.314890000000000      2.267200000000000     -0.728260000000000
H       4.525690000000000     -0.257410000000000      0.276350000000000
H       4.938180000000000      1.297910000000000     -0.546990000000000
H       4.218680000000000      1.317580000000000      1.097070000000000
H       1.850820000000000      0.106890000000000     -2.321220000000000
H       3.547230000000000      0.643250000000000     -2.552940000000000
H       3.191520000000000     -0.933260000000000     -1.749930000000000
H       1.340810000000000      2.270430000000000     -1.266330000000000
H       2.166290000000000      2.824060000000000      0.207190000000000
H       3.046660000000000      2.826800000000000     -1.349090000000000
C      -2.205480000000000      1.439710000000000      1.581400000000000
C      -1.845760000000000     -0.830220000000000      2.113870000000000
O      -1.792260000000000      0.169850000000000      1.116390000000000
C      -1.359500000000000      2.535430000000000      0.928960000000000
C      -3.268960000000000     -1.298020000000000      2.342090000000000
H      -3.263460000000000      1.592690000000000      1.288370000000000
H      -2.114630000000000      1.556070000000000      2.682810000000000
H      -1.237530000000000     -1.690310000000000      1.770120000000000
H      -1.382990000000000     -0.522660000000000      3.067510000000000
H      -3.707750000000000     -1.647170000000000      1.384820000000000
H      -3.264730000000000     -2.130890000000000      3.074910000000000
H      -3.872440000000000     -0.460370000000000      2.746160000000000
H      -0.292580000000000      2.430870000000000      1.196520000000000
H      -1.436760000000000      2.494730000000000     -0.175940000000000
H      -1.704890000000000      3.532060000000000      1.272490000000000
Na      6.860700000000000     -7.842640000000000      8.169650000000001
C       5.287000000000000     -6.100240000000000     10.464330000000000
C       7.503030000000000     -5.483790000000000     10.361430000000000
O       6.615950000000000     -6.576050000000000     10.467790000000001
C       4.334610000000000     -7.281570000000000     10.580450000000001
C       8.934320000000000     -6.000710000000000     10.350560000000000
H       5.104930000000000     -5.429800000000000     11.335039999999999
H       5.058100000000000     -5.571850000000000      9.510669999999999
H       7.335260000000000     -4.933740000000000      9.408849999999999
H       7.394640000000000     -4.799840000000000     11.234050000000000
H       9.089250000000000     -6.677660000000000      9.483730000000000
H       9.641190000000000     -5.147860000000000     10.270220000000000
H       9.147259999999999     -6.556270000000000     11.288460000000001
H       4.523480000000000     -7.832940000000000     11.526000000000000
H       3.284850000000000     -6.918870000000000     10.579770000000000
H       4.476310000000000     -7.972510000000000      9.722350000000000
Na      6.974950000000000     -7.445420000000000     12.927809999999999
Mg      8.201330000000000      1.771210000000000      7.558590000000000
C       7.398330000000000      2.209940000000000      4.093000000000000
C       7.279800000000000     -0.056240000000000      4.815880000000000
O       7.338450000000000      1.309810000000000      5.185610000000000
C       6.134220000000000      2.220430000000000      3.236110000000000
C       8.540609999999999     -0.552250000000000      4.109670000000000
H       7.508900000000000      3.226130000000000      4.528320000000000
H       8.300820000000000      2.053670000000000      3.470830000000000
H       7.196960000000000     -0.635280000000000      5.757690000000000
H       6.358410000000000     -0.296130000000000      4.247660000000000
H       9.438739999999999     -0.306310000000000      4.713110000000000
H       8.480399999999999     -1.653760000000000      3.986990000000000
H       8.634560000000000     -0.104350000000000      3.100700000000000
H       5.238230000000000      2.406430000000000      3.862100000000000
H       6.216100000000000      3.028450000000000      2.479310000000000
H       6.018840000000000      1.260580000000000      2.696480000000000
H       9.735950000000001      4.059240000000000      6.225050000000000
C      10.948639999999999      2.391270000000000      5.496990000000000
C      10.144570000000000      3.088900000000000      6.576140000000000
C      12.149270000000000      3.245780000000000      5.110530000000000
H      11.290220000000000      1.404810000000000      5.874730000000000
H      10.300850000000001      2.224580000000000      4.613310000000000
H      11.795150000000000      4.232570000000000      4.740000000000000
H      12.790559999999999      3.404490000000000      6.004910000000000
C      12.967370000000001      2.568130000000000      4.021460000000000
H      10.738009999999999      3.217240000000000      7.505390000000000
H      13.340949999999999      1.584860000000000      4.378900000000000
H      12.344780000000000      2.416480000000000      3.113860000000000
H      13.833060000000000      3.211440000000000      3.762460000000000
C       4.891680000000000      2.286290000000000     10.999330000000000
C       5.747720000000000      1.663310000000000     11.882450000000000
C       6.390450000000000      0.660910000000000     11.176480000000000
C       5.938700000000000      0.723020000000000      9.929069999999999
N       4.980400000000000      1.747300000000000      9.838369999999999
C       6.291580000000000     -0.176150000000000      8.761880000000000
N       7.671310000000000     -0.058740000000000      8.249590000000000
C       8.845810000000000     -0.711260000000000      8.854220000000000
H       5.876350000000000      1.905370000000000     12.929990000000000
H       4.228180000000000      3.109820000000000     11.222460000000000
H       7.100880000000000     -0.035720000000000     11.583040000000000
H       5.630960000000000      0.131060000000000      7.922150000000000
H       6.031130000000000     -1.226650000000000      8.987840000000000
C       8.473030000000000     -2.018360000000000      9.567209999999999
C       9.814800000000000     -1.046890000000000      7.704190000000000
C       9.578090000000000      0.265930000000000      9.797610000000001
H       7.968760000000000     -2.698890000000000      8.848780000000000
H       9.381530000000000     -2.522600000000000      9.956690000000000
H       7.792820000000000     -1.834310000000000     10.418930000000000
H      10.105399999999999     -0.123890000000000      7.160890000000000
H      10.742050000000001     -1.526400000000000      8.086200000000000
H       9.337680000000001     -1.733290000000000      6.972570000000000
H       9.917630000000001      1.168820000000000      9.243960000000000
H       8.944720000000000      0.615490000000000     10.624499999999999
H      10.477069999999999     -0.217290000000000     10.236549999999999
C       6.587450000000000      4.331220000000000      8.503570000000000
C       5.247380000000000      3.210510000000000      6.922640000000000
O       6.560140000000000      3.486380000000000      7.369040000000000
C       7.727960000000000      3.910120000000000      9.429950000000000
C       4.692550000000000      4.366910000000000      6.110720000000000
H       6.771890000000000      5.371550000000000      8.166539999999999
H       5.648290000000000      4.305690000000000      9.098430000000000
H       5.290310000000000      2.310220000000000      6.276730000000000
H       4.554180000000000      2.941840000000000      7.742590000000000
H       5.375770000000000      4.597740000000000      5.267230000000000
H       3.695330000000000      4.088530000000000      5.711200000000000
H       4.587750000000000      5.260850000000000      6.758640000000000
H       7.580520000000000      2.875260000000000      9.793839999999999
H       8.700860000000000      3.954330000000000      8.899760000000001
H       7.771330000000000      4.584900000000000     10.309360000000000

-C 0
6-31g(d,p)
****
-H 0
6-31g(d,p)
****
-Mg 0
6-31g(d,p)
****
-N 0
6-31+g(d,p)
****
-Na 0
6-31g(d,p)
****
-O 0
6-31+g(d,p)
****


