%chk=lowest10_c1_a2_speciation0_speciationDFT1_speciationDFT1_rank07_E179.22.chk
%nprocshared=20
%mem=40GB
#p opt=loose PM7/gen scf=xqc 

lowest10_c1_a2_speciation0_speciationDFT1_speciationDFT1_rank07_E179.22 DFT input

0 1
Mg      0.339170000000000     -0.666860000000000      0.207390000000000
H       0.243020000000000     -1.373270000000000      3.120390000000000
C       0.730770000000000      0.759630000000000      3.263110000000000
C       0.879410000000000     -0.608830000000000      2.629520000000000
C       1.214050000000000      0.698590000000000      4.706440000000000
H       1.332320000000000      1.496110000000000      2.686670000000000
H      -0.338190000000000      1.064280000000000      3.220940000000000
H       0.610640000000000     -0.051340000000000      5.261070000000000
H       2.280780000000000      0.384920000000000      4.721400000000000
C       1.081760000000000      2.050070000000000      5.390560000000000
H       1.940840000000000     -0.928930000000000      2.572340000000000
H       1.693610000000000      2.810200000000000      4.859870000000000
H       0.019000000000000      2.372680000000000      5.400260000000000
H       1.442060000000000      1.962330000000000      6.436260000000000
C      -0.521390000000000     -3.512360000000000     -0.900240000000000
C      -1.081890000000000     -3.890110000000000     -2.110070000000000
C      -1.245640000000000     -2.732990000000000     -2.855820000000000
C      -0.791460000000000     -1.700420000000000     -2.069910000000000
N      -0.353810000000000     -2.181620000000000     -0.896920000000000
C      -0.743080000000000     -0.225360000000000     -2.418760000000000
N      -0.367070000000000      0.569880000000000     -1.232620000000000
C      -0.289450000000000      2.040430000000000     -1.301420000000000
H      -1.338090000000000     -4.893690000000000     -2.418480000000000
H      -0.251950000000000     -4.172200000000000     -0.083850000000000
H      -1.654810000000000     -2.648710000000000     -3.853260000000000
H      -1.745750000000000      0.082670000000000     -2.766670000000000
H       0.005900000000000     -0.099120000000000     -3.227030000000000
C      -1.693940000000000      2.618790000000000     -1.557780000000000
C       0.221110000000000      2.580290000000000      0.047080000000000
C       0.680480000000000      2.484120000000000     -2.410950000000000
H      -2.388910000000000      2.311510000000000     -0.745470000000000
H      -1.663050000000000      3.727960000000000     -1.596860000000000
H      -2.106810000000000      2.262880000000000     -2.522780000000000
H       1.241650000000000      2.199080000000000      0.264100000000000
H       0.264060000000000      3.692700000000000      0.031370000000000
H      -0.453660000000000      2.275050000000000      0.875110000000000
H       1.691580000000000      2.059080000000000     -2.231530000000000
H       0.324940000000000      2.151090000000000     -3.407360000000000
H       0.760970000000000      3.592030000000000     -2.437500000000000
Na      0.246600000000000     -3.496910000000000      9.680660000000000
C      -2.286510000000000     -2.609290000000000      7.796990000000000
C      -2.124850000000000     -4.904930000000000      7.892560000000000
O      -1.414370000000000     -3.709400000000000      7.651180000000000
C      -1.519470000000000     -1.324230000000000      7.521290000000000
C      -1.175820000000000     -6.086300000000000      7.749710000000000
H      -3.122070000000000     -2.667890000000000      7.064390000000000
H      -2.682430000000000     -2.553640000000000      8.836510000000001
H      -2.531930000000000     -4.921030000000000      8.929420000000000
H      -2.944180000000000     -5.034410000000000      7.148960000000000
H      -0.345940000000000     -6.000840000000000      8.483219999999999
H      -1.724430000000000     -7.033490000000000      7.938000000000000
H      -0.752280000000000     -6.114560000000000      6.723280000000000
H      -1.116810000000000     -1.337030000000000      6.486850000000000
H      -2.196890000000000     -0.451060000000000      7.631890000000000
H      -0.678110000000000     -1.219050000000000      8.238870000000000
Na     -0.932700000000000     -3.794780000000000      5.059540000000000
Mg     -6.705960000000000     -5.931410000000000      2.512250000000000
H      -8.780480000000001     -6.990530000000000      0.484730000000000
C      -9.851550000000000     -5.270990000000000      1.307500000000000
C      -8.951630000000000     -6.483740000000000      1.456740000000000
C     -11.224040000000000     -5.709390000000000      0.804680000000000
H      -9.947910000000000     -4.766900000000000      2.293790000000000
H      -9.384430000000000     -4.561030000000000      0.590220000000000
H     -11.109760000000000     -6.220850000000000     -0.175930000000000
H     -11.671440000000000     -6.421540000000000      1.532230000000000
C     -12.156900000000000     -4.518920000000000      0.637690000000000
H      -9.347110000000001     -7.193220000000000      2.213480000000000
H     -12.300300000000000     -4.003470000000000      1.611090000000000
H     -11.736980000000001     -3.802990000000000     -0.100430000000000
H     -13.141249999999999     -4.877590000000000      0.271640000000000
C      -4.409810000000000     -8.000640000000001      1.806860000000000
C      -3.038300000000000     -7.955100000000000      1.995100000000000
C      -2.752420000000000     -6.736450000000000      2.592600000000000
C      -3.958190000000000     -6.084880000000000      2.729560000000000
N      -4.948050000000000     -6.858690000000000      2.263380000000000
C      -4.208590000000000     -4.708180000000000      3.319280000000000
N      -5.621060000000000     -4.322260000000000      3.113260000000000
C      -6.133720000000000     -3.018810000000000      3.570550000000000
H      -2.325630000000000     -8.724370000000000      1.730710000000000
H      -4.972310000000000     -8.815899999999999      1.369690000000000
H      -1.779670000000000     -6.365330000000000      2.884150000000000
H      -3.549480000000000     -3.983760000000000      2.804410000000000
H      -3.963180000000000     -4.751750000000000      4.400200000000000
C      -5.439870000000000     -1.885100000000000      2.791980000000000
C      -7.644930000000000     -2.953690000000000      3.283700000000000
C      -5.907970000000000     -2.844970000000000      5.082240000000000
H      -5.612690000000000     -2.008650000000000      1.700180000000000
H      -5.837150000000000     -0.894790000000000      3.100830000000000
H      -4.346310000000000     -1.881000000000000      2.974750000000000
H      -8.185140000000001     -3.752840000000000      3.834770000000000
H      -8.062139999999999     -1.971800000000000      3.600830000000000
H      -7.845730000000000     -3.078280000000000      2.197990000000000
H      -6.405090000000000     -3.665250000000000      5.643490000000000
H      -4.826490000000000     -2.851840000000000      5.323850000000000
H      -6.323870000000000     -1.874730000000000      5.429380000000000

-C 0
6-31g(d,p)
****
-H 0
6-31g(d,p)
****
-Mg 0
6-31g(d,p)
****
-N 0
6-31+g(d,p)
****
-Na 0
6-31g(d,p)
****
-O 0
6-31+g(d,p)
****


