%chk=lowest10_c1_a2_speciation0_speciationDFT1_speciationDFT1_rank04_E179.10.chk
%nprocshared=20
%mem=40GB
#p opt=loose PM7/gen scf=xqc 

lowest10_c1_a2_speciation0_speciationDFT1_speciationDFT1_rank04_E179.10 DFT input

0 1
Mg     -0.412260000000000      0.524660000000000     -0.411890000000000
H      -1.806150000000000     -0.298470000000000     -2.934540000000000
C       0.129180000000000     -1.284000000000000     -3.234460000000000
C      -0.722320000000000     -0.111540000000000     -2.791250000000000
C      -0.049640000000000     -1.495430000000000     -4.732540000000000
H       1.194890000000000     -1.069830000000000     -3.000250000000000
H      -0.182100000000000     -2.191470000000000     -2.671530000000000
H      -1.122030000000000     -1.695660000000000     -4.947280000000000
H       0.260140000000000     -0.572810000000000     -5.270610000000000
C       0.785760000000000     -2.665490000000000     -5.228070000000000
H      -0.400950000000000      0.839990000000000     -3.264100000000000
H       1.863450000000000     -2.475760000000000     -5.037400000000000
H       0.478980000000000     -3.600790000000000     -4.713570000000000
H       0.627960000000000     -2.785310000000000     -6.319750000000000
C      -2.861630000000000      2.062540000000000      0.891690000000000
C      -3.140150000000000      2.385360000000000      2.210360000000000
C      -2.097230000000000      1.886120000000000      2.974920000000000
C      -1.236040000000000      1.271130000000000      2.097600000000000
N      -1.703580000000000      1.387570000000000      0.845950000000000
C       0.068620000000000      0.569880000000000      2.421910000000000
N       0.591320000000000     -0.119520000000000      1.225080000000000
C       1.833520000000000     -0.910680000000000      1.290020000000000
H      -4.000790000000000      2.927650000000000      2.575180000000000
H      -3.466710000000000      2.312320000000000      0.028010000000000
H      -1.979430000000000      1.955080000000000      4.047410000000000
H      -0.124020000000000     -0.170240000000000      3.219720000000000
H       0.783600000000000      1.342730000000000      2.770720000000000
C       1.620900000000000     -2.127900000000000      2.209750000000000
C       2.179170000000000     -1.420590000000000     -0.121120000000000
C       3.001570000000000     -0.050840000000000      1.804810000000000
H       0.787880000000000     -2.757190000000000      1.825880000000000
H       2.539660000000000     -2.749130000000000      2.261100000000000
H       1.372700000000000     -1.814010000000000      3.243320000000000
H       2.356910000000000     -0.571720000000000     -0.815230000000000
H       3.100760000000000     -2.044770000000000     -0.095970000000000
H       1.354480000000000     -2.043470000000000     -0.528520000000000
H       3.149000000000000      0.832620000000000      1.146790000000000
H       2.810810000000000      0.302110000000000      2.838810000000000
H       3.942360000000000     -0.641870000000000      1.821150000000000
Na     -5.993200000000000     -8.642799999999999      1.689620000000000
C      -4.810980000000000     -6.266070000000000      3.615310000000000
C      -7.113960000000000     -6.227040000000000      3.616320000000000
O      -5.962950000000000     -6.257510000000000      2.799860000000000
C      -3.572850000000000     -6.285130000000000      2.730490000000000
C      -8.352690000000001     -6.233670000000000      2.731910000000000
H      -4.764310000000000     -5.348280000000000      4.242780000000000
H      -4.786340000000000     -7.177450000000000      4.255100000000000
H      -7.159640000000000     -7.128020000000000      4.269920000000000
H      -7.138480000000000     -5.297520000000000      4.229840000000000
H      -8.372159999999999     -7.152740000000000      2.108220000000000
H      -9.265540000000000     -6.210150000000000      3.364140000000000
H      -8.352919999999999     -5.343500000000000      2.067580000000000
H      -3.553410000000000     -5.384600000000000      2.080530000000000
H      -2.659830000000000     -6.290900000000000      3.362970000000000
H      -3.573170000000000     -7.194300000000000      2.092360000000000
Na     -5.935280000000000     -3.865080000000000      1.692720000000000
Mg     -7.480470000000000      0.174770000000000      6.758470000000000
H      -8.262650000000001      2.722690000000000      8.317950000000000
C      -6.518470000000000      2.061880000000000      9.459059999999999
C      -7.801730000000000      1.787380000000000      8.696970000000000
C      -6.823140000000000      2.917590000000000     10.685309999999999
H      -6.066660000000000      1.094590000000000      9.769500000000001
H      -5.805010000000000      2.587370000000000      8.787060000000000
H      -7.283970000000000      3.875540000000000     10.359380000000000
H      -7.540850000000000      2.377480000000000     11.340920000000001
C      -5.558600000000000      3.219010000000000     11.476120000000000
H      -8.522360000000001      1.206110000000000      9.309540000000000
H      -5.091220000000000      2.274890000000000     11.828180000000000
H      -4.834450000000000      3.775800000000000     10.844210000000000
H      -5.820850000000000      3.841290000000000     12.356800000000000
C      -9.671760000000001      0.447140000000000      4.483340000000000
C      -9.740110000000000     -0.075170000000000      3.202310000000000
C      -8.583010000000000     -0.814000000000000      3.004690000000000
C      -7.851870000000000     -0.698760000000000      4.166290000000000
N      -8.521050000000001      0.052810000000000      5.051330000000000
C      -6.496610000000000     -1.309940000000000      4.475560000000000
N      -5.994690000000000     -0.792980000000000      5.766720000000000
C      -4.685100000000000     -1.206460000000000      6.300480000000000
H     -10.543930000000000      0.062820000000000      2.492050000000000
H     -10.415880000000000      1.068850000000000      4.964920000000000
H      -8.303369999999999     -1.362510000000000      2.115920000000000
H      -5.794880000000000     -1.028080000000000      3.667820000000000
H      -6.620900000000000     -2.411660000000000      4.511120000000000
C      -3.563550000000000     -0.708290000000000      5.369370000000000
C      -4.490700000000000     -0.563120000000000      7.685630000000000
C      -4.616600000000000     -2.735880000000000      6.450180000000000
H      -3.613010000000000      0.398180000000000      5.272540000000000
H      -2.565240000000000     -0.982080000000000      5.772260000000000
H      -3.651190000000000     -1.152200000000000      4.357180000000000
H      -5.277890000000000     -0.903370000000000      8.391880000000000
H      -3.500440000000000     -0.840530000000000      8.111210000000000
H      -4.536870000000000      0.544850000000000      7.615540000000000
H      -5.428650000000000     -3.094880000000000      7.118620000000000
H      -4.718490000000000     -3.234450000000000      5.465800000000000
H      -3.639820000000000     -3.041850000000000      6.882710000000000

-C 0
6-31g(d,p)
****
-H 0
6-31g(d,p)
****
-Mg 0
6-31g(d,p)
****
-N 0
6-31+g(d,p)
****
-Na 0
6-31g(d,p)
****
-O 0
6-31+g(d,p)
****


