%chk=lowest10_c1_a2_speciation7_speciationDFT38_speciationDFT96_rank08_E227.87.chk
%nprocshared=20
%mem=40GB
#p opt=loose PM7/gen scf=xqc 

lowest10_c1_a2_speciation7_speciationDFT38_speciationDFT96_rank08_E227.87 DFT input

0 1
Mg      0.376010000000000     -0.053940000000000     -0.380890000000000
C      -0.457130000000000     -3.163370000000000      1.011690000000000
C       0.586490000000000     -1.666440000000000      2.548930000000000
O      -0.082130000000000     -1.831710000000000      1.312570000000000
C      -1.512030000000000     -3.730970000000000      1.956390000000000
C       1.934760000000000     -2.379240000000000      2.614980000000000
H      -0.905280000000000     -3.138450000000000     -0.005110000000000
H       0.416120000000000     -3.839040000000000      0.937200000000000
H       0.802250000000000     -0.583880000000000      2.646210000000000
H      -0.065920000000000     -1.910640000000000      3.411560000000000
H       2.556180000000000     -2.104940000000000      1.737530000000000
H       2.464440000000000     -2.069580000000000      3.539900000000000
H       1.798830000000000     -3.478000000000000      2.649430000000000
H      -2.391640000000000     -3.058430000000000      2.008730000000000
H      -1.840860000000000     -4.720570000000000      1.575380000000000
H      -1.091540000000000     -3.874810000000000      2.971090000000000
H       0.504590000000000     -2.279530000000000     -2.351140000000000
C       2.437020000000000     -2.595090000000000     -1.359890000000000
C       1.360110000000000     -1.704380000000000     -1.940620000000000
C       3.021470000000000     -3.463230000000000     -2.460790000000000
H       3.232560000000000     -1.968290000000000     -0.906740000000000
H       1.997620000000000     -3.230270000000000     -0.566240000000000
H       2.210860000000000     -4.080760000000000     -2.903840000000000
H       3.454870000000000     -2.809730000000000     -3.249100000000000
C       4.104950000000000     -4.376080000000000     -1.910070000000000
H       1.768810000000000     -0.982650000000000     -2.677820000000000
H       4.926660000000000     -3.772160000000000     -1.469040000000000
H       3.681700000000000     -5.044630000000000     -1.130090000000000
H       4.511130000000000     -4.993700000000000     -2.736380000000000
C      -2.889410000000000      3.596440000000000     -0.624250000000000
C      -1.843850000000000      4.446590000000000     -0.877760000000000
C      -0.755890000000000      4.015910000000000     -0.127200000000000
C      -1.125100000000000      2.919940000000000      0.551240000000000
N      -2.471220000000000      2.620970000000000      0.290310000000000
C      -0.308400000000000      2.103280000000000      1.534490000000000
N       0.828650000000000      1.349380000000000      0.980070000000000
C       2.150890000000000      1.921960000000000      0.684280000000000
H      -1.883610000000000      5.298760000000000     -1.544310000000000
H      -3.882470000000000      3.651220000000000     -1.047980000000000
H       0.199800000000000      4.505800000000000     -0.101490000000000
H      -1.002610000000000      1.333790000000000      1.938720000000000
H      -0.003150000000000      2.719390000000000      2.398140000000000
C       2.462670000000000      3.103320000000000      1.606730000000000
C       3.192610000000000      0.814780000000000      0.936970000000000
C       2.245500000000000      2.313060000000000     -0.804580000000000
H       2.386930000000000      2.772910000000000      2.665840000000000
H       3.487550000000000      3.482290000000000      1.420960000000000
H       1.749070000000000      3.930960000000000      1.440230000000000
H       2.986420000000000     -0.065210000000000      0.294860000000000
H       4.220650000000000      1.170370000000000      0.708730000000000
H       3.161760000000000      0.473120000000000      1.993400000000000
H       2.116690000000000      1.422670000000000     -1.459580000000000
H       1.476800000000000      3.041070000000000     -1.098760000000000
H       3.240680000000000      2.754660000000000     -1.025590000000000
C      -2.333940000000000      0.261120000000000     -1.972160000000000
C      -2.852960000000000     -0.544990000000000      0.184510000000000
O      -1.885320000000000     -0.463010000000000     -0.843210000000000
C      -1.177390000000000      1.066500000000000     -2.568630000000000
C      -3.912290000000000     -1.577280000000000     -0.140460000000000
H      -2.686860000000000     -0.461780000000000     -2.734940000000000
H      -3.154340000000000      0.974110000000000     -1.740260000000000
H      -2.336100000000000     -0.840610000000000      1.119170000000000
H      -3.328810000000000      0.421260000000000      0.419390000000000
H      -3.434400000000000     -2.559820000000000     -0.330850000000000
H      -4.609910000000000     -1.661610000000000      0.718220000000000
H      -4.477520000000000     -1.254190000000000     -1.037900000000000
H      -0.793330000000000      1.809930000000000     -1.846440000000000
H      -0.335780000000000      0.404010000000000     -2.854180000000000
H      -1.522880000000000      1.609750000000000     -3.472100000000000
Na      0.074390000000000    -12.903520000000000     -7.230180000000000
C      -0.662190000000000    -10.997949999999999     -9.690400000000000
C      -2.497510000000000    -10.865589999999999     -8.236510000000001
O      -1.470010000000000    -11.687600000000000     -8.756380000000000
C       0.504190000000000    -10.306200000000000     -8.991970000000000
C      -3.762500000000000    -10.962020000000001     -9.085520000000001
H      -0.250080000000000    -11.746029999999999    -10.400440000000000
H      -1.240160000000000    -10.273330000000000    -10.307140000000000
H      -2.733140000000000    -11.226820000000000     -7.212730000000000
H      -2.183390000000000     -9.803730000000000     -8.125810000000000
H      -4.125390000000000    -12.010030000000000     -9.125019999999999
H      -4.556920000000000    -10.330980000000000     -8.635320000000000
H      -3.569310000000000    -10.606600000000000    -10.118570000000000
H       1.115320000000000    -11.050730000000000     -8.440030000000000
H       1.145010000000000     -9.806670000000000     -9.747750000000000
H       0.135180000000000     -9.540990000000001     -8.279030000000001
C      -0.047270000000000    -10.379210000000000     -4.997690000000000
C       1.065370000000000    -12.287459999999999     -4.101430000000000
O       0.272800000000000    -11.751150000000001     -5.146560000000000
C       1.170900000000000     -9.455180000000000     -5.018880000000000
C       0.372080000000000    -12.274020000000000     -2.739020000000000
H      -0.670830000000000    -10.105530000000000     -5.874520000000000
H      -0.688620000000000    -10.199740000000000     -4.110740000000000
H       1.245520000000000    -13.353280000000000     -4.358960000000000
H       2.070720000000000    -11.819739999999999     -4.060680000000000
H      -0.618680000000000    -12.769940000000000     -2.811400000000000
H       0.997730000000000    -12.822910000000000     -2.004370000000000
H       0.246530000000000    -11.237530000000000     -2.366280000000000
H       1.773610000000000     -9.636530000000000     -5.933540000000000
H       0.826320000000000     -8.400580000000000     -5.017830000000000
H       1.800590000000000     -9.602790000000001     -4.118480000000000
Na     -2.544650000000000    -13.709720000000001     -9.476480000000000
C      -0.299440000000000    -15.766470000000000     -8.120070000000000
C      -2.101210000000000    -15.349290000000000     -6.686050000000000
O      -1.298100000000000    -14.845120000000000     -7.733800000000000
C       0.274410000000000    -15.329499999999999     -9.461970000000001
C      -1.414430000000000    -15.218830000000001     -5.328130000000000
H       0.527160000000000    -15.767780000000000     -7.377660000000000
H      -0.704570000000000    -16.794899999999998     -8.252240000000000
H      -3.026350000000000    -14.734550000000000     -6.657630000000000
H      -2.433730000000000    -16.394120000000001     -6.874220000000000
H      -1.144810000000000    -14.159640000000000     -5.137540000000000
H      -2.107040000000000    -15.559620000000001     -4.530310000000000
H      -0.499580000000000    -15.844329999999999     -5.286180000000000
H       0.692350000000000    -14.302830000000000     -9.385630000000001
H       1.083250000000000    -16.024200000000000     -9.771580000000000
H      -0.519170000000000    -15.337249999999999    -10.238009999999999
C      -3.648830000000000    -16.157309999999999    -11.425090000000001
C      -2.747810000000000    -14.479450000000000    -12.741260000000000
O      -2.936130000000000    -14.944110000000000    -11.426760000000000
C      -3.845450000000000    -16.590039999999998     -9.978370000000000
C      -1.948760000000000    -13.184810000000001    -12.675840000000001
H      -4.654280000000000    -16.029640000000001    -11.886100000000001
H      -3.072020000000000    -16.952839999999998    -11.947990000000001
H      -2.165140000000000    -15.213820000000000    -13.341810000000001
H      -3.725280000000000    -14.258960000000000    -13.226530000000000
H      -0.964870000000000    -13.372610000000000    -12.195050000000000
H      -1.780060000000000    -12.786940000000000    -13.697990000000001
H      -2.500280000000000    -12.426180000000000    -12.079120000000000
H      -4.418770000000000    -15.816649999999999     -9.422910000000000
H      -4.399590000000000    -17.550470000000001     -9.936920000000001
H      -2.859160000000000    -16.723820000000000     -9.487730000000001
Mg     -0.410110000000000     -3.240110000000000     -9.639460000000000
C      -2.248050000000000     -2.508470000000000     -6.923430000000000
C      -3.554680000000000     -2.194490000000000     -8.899670000000000
O      -2.273150000000000     -2.390210000000000     -8.336060000000000
C      -3.208680000000000     -3.549230000000000     -6.342460000000000
C      -4.168510000000000     -0.850390000000000     -8.526220000000000
H      -1.226970000000000     -2.851330000000000     -6.661780000000000
H      -2.376790000000000     -1.519030000000000     -6.438930000000000
H      -3.424690000000000     -2.201490000000000     -9.999510000000001
H      -4.236080000000000     -3.043370000000000     -8.692190000000000
H      -5.116330000000000     -0.716890000000000     -9.088340000000001
H      -3.473860000000000     -0.025990000000000     -8.789330000000000
H      -4.392700000000000     -0.812310000000000     -7.441860000000000
H      -3.059380000000000     -4.529250000000000     -6.831220000000000
H      -4.262720000000000     -3.226730000000000     -6.461480000000000
H      -3.009320000000000     -3.669580000000000     -5.258440000000000
H       0.337780000000000     -0.724430000000000    -10.256589999999999
C      -0.011760000000000     -1.659770000000000    -12.204700000000001
C       0.539160000000000     -1.686310000000000    -10.770360000000000
C      -1.543140000000000     -1.520580000000000    -12.308490000000001
H       0.470440000000000     -0.827350000000000    -12.759470000000000
H       0.264770000000000     -2.616020000000000    -12.698280000000000
H      -1.819510000000000     -1.530850000000000    -13.386670000000001
H      -2.032900000000000     -2.393240000000000    -11.829890000000001
C      -2.090000000000000     -0.229220000000000    -11.700089999999999
H       1.633280000000000     -1.861230000000000    -10.789990000000000
H      -1.894190000000000     -0.196460000000000    -10.610580000000001
H      -1.629350000000000      0.656640000000000    -12.184740000000000
H      -3.190600000000000     -0.183720000000000    -11.853460000000000
C      -3.631170000000000     -5.471310000000000    -10.271390000000000
C      -2.651720000000000     -5.293760000000000    -11.221100000000000
C      -1.430220000000000     -5.456680000000000    -10.593579999999999
C      -1.657350000000000     -5.704070000000000     -9.299849999999999
N      -3.038170000000000     -5.752990000000000     -9.028879999999999
C      -0.588980000000000     -5.869510000000000     -8.252170000000000
N       0.188580000000000     -4.625570000000000     -8.166390000000000
C       1.396130000000000     -4.591330000000000     -7.305790000000000
H      -2.817340000000000     -5.050770000000000    -12.262689999999999
H      -4.695820000000000     -5.395040000000000    -10.440659999999999
H      -0.457750000000000     -5.356730000000000    -11.055990000000000
H       0.048140000000000     -6.730120000000000     -8.533350000000000
H      -1.080200000000000     -6.072010000000000     -7.277050000000000
C       2.490070000000000     -5.528400000000000     -7.855510000000000
C       1.942930000000000     -3.154720000000000     -7.280580000000000
C       1.049450000000000     -5.004720000000000     -5.856600000000000
H       2.766450000000000     -5.239630000000000     -8.891030000000001
H       3.401030000000000     -5.476660000000000     -7.218910000000000
H       2.157500000000000     -6.586460000000000     -7.856460000000000
H       1.189310000000000     -2.452450000000000     -6.866200000000000
H       2.855370000000000     -3.094190000000000     -6.645340000000000
H       2.209700000000000     -2.821140000000000     -8.305220000000000
H       0.268050000000000     -4.338850000000000     -5.432450000000000
H       0.682770000000000     -6.050230000000000     -5.809440000000000
H       1.948210000000000     -4.942500000000000     -5.205530000000000

-C 0
6-31g(d,p)
****
-H 0
6-31g(d,p)
****
-Mg 0
6-31g(d,p)
****
-N 0
6-31+g(d,p)
****
-Na 0
6-31g(d,p)
****
-O 0
6-31+g(d,p)
****


