%chk=lowest10_c1_a2_speciation7_speciationDFT36_speciationDFT36_rank02_E221.85.chk
%nprocshared=20
%mem=40GB
#p opt=loose PM7/gen scf=xqc 

lowest10_c1_a2_speciation7_speciationDFT36_speciationDFT36_rank02_E221.85 DFT input

0 1
Mg      0.467600000000000      0.103180000000000      0.667750000000000
C      -2.650550000000000      0.447980000000000     -1.401430000000000
C      -1.565780000000000      2.483570000000000     -1.386920000000000
O      -1.929470000000000      1.365640000000000     -0.601960000000000
C      -3.407540000000000     -0.523610000000000     -0.508630000000000
C      -0.710840000000000      3.435640000000000     -0.560380000000000
H      -3.410500000000000      0.955590000000000     -2.036340000000000
H      -1.955980000000000     -0.127540000000000     -2.047620000000000
H      -0.983110000000000      2.175010000000000     -2.280210000000000
H      -2.469220000000000      3.038600000000000     -1.716810000000000
H       0.223230000000000      2.937140000000000     -0.231360000000000
H      -0.441130000000000      4.322720000000000     -1.171730000000000
H      -1.274970000000000      3.773780000000000      0.333680000000000
H      -4.109120000000000      0.026620000000000      0.150350000000000
H      -3.971430000000000     -1.248090000000000     -1.132140000000000
H      -2.714410000000000     -1.090990000000000      0.128160000000000
H      -0.120230000000000      2.741810000000000      2.362810000000000
C       1.831490000000000      1.785270000000000      2.733460000000000
C       0.322010000000000      1.740440000000000      2.529140000000000
C       2.549200000000000      2.424520000000000      1.537070000000000
H       2.030630000000000      2.371200000000000      3.651770000000000
H       2.212660000000000      0.749070000000000      2.873930000000000
H       2.406500000000000      1.803060000000000      0.625120000000000
H       2.133180000000000      3.436710000000000      1.346250000000000
C       4.044230000000000      2.563720000000000      1.814760000000000
H      -0.184670000000000      1.206100000000000      3.358420000000000
H       4.203740000000000      3.200260000000000      2.711570000000000
H       4.504990000000000      1.567940000000000      1.988170000000000
H       4.547090000000000      3.043900000000000      0.948780000000000
C       1.301350000000000      1.022600000000000     -2.242110000000000
C       1.268630000000000      0.349060000000000     -3.450390000000000
C       0.798420000000000     -0.928360000000000     -3.183050000000000
C       0.550290000000000     -0.975780000000000     -1.830990000000000
N       0.847830000000000      0.209150000000000     -1.280200000000000
C       0.050780000000000     -2.150060000000000     -1.008460000000000
N      -0.383410000000000     -1.707690000000000      0.336970000000000
C      -0.527390000000000     -2.706670000000000      1.414870000000000
H       1.556080000000000      0.744020000000000     -4.413740000000000
H       1.621010000000000      2.047230000000000     -2.086270000000000
H       0.644020000000000     -1.728930000000000     -3.893040000000000
H      -0.816030000000000     -2.615520000000000     -1.519340000000000
H       0.886820000000000     -2.873730000000000     -0.948070000000000
C       0.847390000000000     -3.208880000000000      1.890600000000000
C      -1.240190000000000     -2.040680000000000      2.609770000000000
C      -1.391310000000000     -3.887500000000000      0.928750000000000
H       1.452690000000000     -2.366810000000000      2.290210000000000
H       0.720010000000000     -3.962080000000000      2.698990000000000
H       1.411870000000000     -3.692740000000000      1.070010000000000
H      -2.246710000000000     -1.668980000000000      2.325030000000000
H      -1.370730000000000     -2.764510000000000      3.444620000000000
H      -0.649830000000000     -1.181070000000000      2.989940000000000
H      -2.378360000000000     -3.519240000000000      0.573040000000000
H      -0.896030000000000     -4.423300000000000      0.092780000000000
H      -1.563240000000000     -4.617160000000000      1.747810000000000
Na      1.317820000000000      8.433630000000001      5.611970000000000
C       0.014130000000000      5.738830000000000      4.494520000000000
C      -0.129340000000000      7.286440000000000      2.738170000000000
O      -0.162960000000000      7.096390000000000      4.139600000000000
C       1.493250000000000      5.413990000000000      4.674630000000000
C      -1.524770000000000      7.163050000000000      2.131800000000000
H      -0.499630000000000      5.572100000000000      5.464950000000000
H      -0.459970000000000      5.039030000000000      3.770090000000000
H       0.247650000000000      8.313720000000000      2.545960000000000
H       0.578610000000000      6.595830000000000      2.228370000000000
H      -2.210360000000000      7.912840000000000      2.578680000000000
H      -1.467950000000000      7.344820000000000      1.038300000000000
H      -1.937770000000000      6.147480000000000      2.301820000000000
H       1.937880000000000      6.069850000000000      5.452070000000000
H       1.602570000000000      4.358240000000000      4.995470000000000
H       2.044130000000000      5.555270000000000      3.722420000000000
C       3.751140000000000      8.457620000000000      3.294520000000000
C       4.262980000000000      9.919370000000001      5.108310000000000
O       3.294390000000000      9.107170000000000      4.467780000000000
C       4.884530000000000      7.461350000000000      3.541620000000000
C       4.730940000000000     11.099610000000000      4.257160000000000
H       2.891550000000000      7.872460000000000      2.905430000000000
H       4.002830000000000      9.182380000000000      2.493470000000000
H       3.769030000000000     10.348229999999999      6.006780000000000
H       5.114520000000000      9.322600000000000      5.495460000000000
H       3.855830000000000     11.685140000000001      3.904850000000000
H       5.382760000000000     11.757239999999999      4.869740000000000
H       5.324030000000000     10.751930000000000      3.387320000000000
H       4.589590000000000      6.732860000000000      4.325890000000000
H       5.097200000000000      6.910830000000000      2.601070000000000
H       5.815100000000000      7.982620000000000      3.844010000000000
Na     -2.137410000000000      8.202790000000000      4.917080000000000
C      -0.669510000000000      9.713620000000001      7.488700000000000
C      -0.688570000000000     11.059970000000000      5.575650000000000
O      -0.672080000000000      9.738740000000000      6.076810000000000
C      -1.015210000000000      8.305180000000000      7.954990000000000
C       0.693700000000000     11.709220000000000      5.624700000000000
H       0.343370000000000      9.958560000000000      7.868620000000000
H      -1.428120000000000     10.402889999999999      7.923430000000000
H      -0.996580000000000     11.000959999999999      4.509730000000000
H      -1.452000000000000     11.692150000000000      6.080560000000000
H       1.425310000000000     11.091749999999999      5.064130000000000
H       0.644340000000000     12.714729999999999      5.156730000000000
H       1.039280000000000     11.829210000000000      6.671800000000000
H      -0.284420000000000      7.574780000000000      7.546400000000000
H      -0.988310000000000      8.257140000000000      9.064030000000001
H      -2.032850000000000      8.026590000000001      7.610420000000000
C      -5.120630000000000      8.736649999999999      6.259100000000000
C      -4.733520000000000      6.457510000000000      6.124150000000000
O      -4.176490000000000      7.738380000000000      5.956450000000000
C      -4.466230000000000     10.092680000000000      6.030380000000000
C      -3.655420000000000      5.428340000000000      5.811280000000000
H      -6.006500000000000      8.663980000000000      5.588520000000000
H      -5.427110000000000      8.677030000000000      7.327490000000000
H      -5.062510000000000      6.302740000000000      7.176410000000000
H      -5.579460000000000      6.298740000000000      5.418000000000000
H      -2.795080000000000      5.561590000000000      6.501600000000000
H      -4.058800000000000      4.401680000000000      5.932720000000000
H      -3.298950000000000      5.555230000000000      4.765980000000000
H      -4.145210000000000     10.188050000000000      4.970540000000000
H      -5.180090000000000     10.908569999999999      6.266850000000000
H      -3.574960000000000     10.195919999999999      6.683400000000000
Mg      4.043500000000000     15.343480000000000      9.937900000000001
C       5.102500000000000     12.904030000000001     12.750520000000000
C       2.994420000000000     13.687680000000000     13.260040000000000
O       4.268010000000000     14.045190000000000     12.764260000000000
C       6.555140000000000     13.341080000000000     12.643280000000001
C       2.059220000000000     14.884990000000000     13.167529999999999
H       5.015680000000000     12.311750000000000     13.689579999999999
H       4.856510000000000     12.260579999999999     11.879220000000000
H       2.552170000000000     12.855330000000000     12.669810000000000
H       3.062890000000000     13.392730000000000     14.329770000000000
H       1.950190000000000     15.210350000000000     12.113189999999999
H       1.057600000000000     14.609859999999999     13.560620000000000
H       2.461780000000000     15.728160000000001     13.766950000000000
H       6.826740000000000     13.981450000000001     13.507550000000000
H       7.216860000000000     12.450390000000001     12.620699999999999
H       6.719080000000000     13.916550000000001     11.718660000000000
H       3.092590000000000     17.639589999999998     12.124919999999999
C       2.681500000000000     18.030419999999999     10.009020000000000
C       3.590930000000000     17.560949999999998     11.137829999999999
C       1.396080000000000     17.196280000000002      9.942410000000001
H       2.432950000000000     19.096950000000000     10.188380000000000
H       3.225350000000000     17.942380000000000      9.042360000000000
H       1.639080000000000     16.136930000000000      9.707250000000000
H       0.873860000000000     17.231800000000000     10.922430000000000
C       0.451420000000000     17.737420000000000      8.872960000000001
H       4.541810000000000     18.132290000000001     11.140190000000000
H       0.178650000000000     18.789010000000001      9.106150000000000
H       0.930660000000000     17.698210000000000      7.871720000000000
H      -0.477270000000000     17.129010000000001      8.849550000000001
C       1.932230000000000     12.987310000000001     10.100890000000000
C       2.025190000000000     11.652089999999999      9.753130000000001
C       3.304790000000000     11.452750000000000      9.254920000000000
C       3.945260000000000     12.670270000000000      9.344550000000000
N       3.107300000000000     13.583460000000001      9.849050000000000
C       5.369220000000000     13.016200000000000      8.940300000000001
N       5.756870000000000     14.341340000000001      9.483459999999999
C       6.902490000000000     15.059320000000000      8.892300000000001
H       1.246120000000000     10.909910000000000      9.851920000000000
H       1.065650000000000     13.483250000000000     10.519880000000001
H       3.721480000000000     10.525610000000000      8.886810000000001
H       6.059210000000000     12.258010000000001      9.363830000000000
H       5.418020000000000     12.987760000000000      7.833700000000000
C       6.538550000000000     15.615810000000000      7.505750000000000
C       7.261700000000000     16.243569999999998      9.813160000000000
C       8.128750000000000     14.128729999999999      8.797230000000001
H       5.677350000000000     16.314019999999999      7.584720000000000
H       7.401170000000000     16.171279999999999      7.076770000000000
H       6.272890000000000     14.804930000000001      6.799500000000000
H       7.539100000000000     15.894480000000000     10.829890000000001
H       8.125870000000001     16.812870000000000      9.404949999999999
H       6.403710000000000     16.941469999999999      9.911049999999999
H       8.383810000000000     13.725450000000000      9.801679999999999
H       7.930390000000000     13.274640000000000      8.117190000000001
H       9.011640000000000     14.677840000000000      8.406319999999999

-C 0
6-31g(d,p)
****
-H 0
6-31g(d,p)
****
-Mg 0
6-31g(d,p)
****
-N 0
6-31+g(d,p)
****
-Na 0
6-31g(d,p)
****
-O 0
6-31+g(d,p)
****


