%chk=lowest10_c1_a2_speciation0_speciationDFT1_speciationDFT96_rank01_E186.90.chk
%nprocshared=20
%mem=40GB
#p opt=loose PM7/gen scf=xqc 

lowest10_c1_a2_speciation0_speciationDFT1_speciationDFT96_rank01_E186.90 DFT input

0 1
Mg      0.503970000000000     -0.226860000000000      0.002870000000000
C       0.436320000000000      2.044830000000000     -2.647920000000000
C      -1.283040000000000      0.391900000000000     -2.744920000000000
O      -0.308530000000000      1.055460000000000     -1.962420000000000
C      -0.398770000000000      3.241820000000000     -3.090560000000000
C      -0.694950000000000     -0.417740000000000     -3.897490000000000
H       1.192950000000000      2.420260000000000     -1.925370000000000
H       1.012690000000000      1.625800000000000     -3.494450000000000
H      -1.778330000000000     -0.337970000000000     -2.074250000000000
H      -2.089940000000000      1.077220000000000     -3.074480000000000
H       0.104290000000000     -1.091010000000000     -3.524330000000000
H      -1.497140000000000     -1.033720000000000     -4.354660000000000
H      -0.286940000000000      0.250870000000000     -4.680630000000000
H      -0.957410000000000      3.666590000000000     -2.232490000000000
H       0.278340000000000      4.021760000000000     -3.497860000000000
H      -1.107960000000000      2.948380000000000     -3.889280000000000
H       3.193700000000000      0.770840000000000     -0.721050000000000
C       2.960910000000000     -0.744970000000000     -2.293320000000000
C       2.807860000000000     -0.258890000000000     -0.868760000000000
C       4.436550000000000     -0.817580000000000     -2.644220000000000
H       2.495900000000000     -1.747050000000000     -2.395750000000000
H       2.439770000000000     -0.046580000000000     -2.976430000000000
H       4.887590000000000      0.192470000000000     -2.532020000000000
H       4.941230000000000     -1.521220000000000     -1.946880000000000
C       4.627620000000000     -1.298930000000000     -4.073370000000000
H       3.229520000000000     -0.974830000000000     -0.133270000000000
H       4.189500000000000     -2.312290000000000     -4.197780000000000
H       4.137380000000000     -0.597640000000000     -4.782120000000000
H       5.712490000000000     -1.342360000000000     -4.297500000000000
C      -1.688540000000000      0.770360000000000      4.229680000000000
C      -1.570600000000000     -0.554760000000000      4.588240000000000
C      -1.756630000000000     -1.300640000000000      3.434500000000000
C      -1.953140000000000     -0.431170000000000      2.446930000000000
N      -1.920960000000000      0.869580000000000      2.973470000000000
C      -2.248670000000000     -0.702450000000000      0.984280000000000
N      -1.165180000000000     -1.316400000000000      0.194550000000000
C      -0.829120000000000     -2.747120000000000      0.198380000000000
H      -1.385460000000000     -0.929920000000000      5.586940000000000
H      -1.605290000000000      1.627050000000000      4.882800000000000
H      -1.754950000000000     -2.374130000000000      3.378510000000000
H      -2.429410000000000      0.290120000000000      0.517810000000000
H      -3.190750000000000     -1.267220000000000      0.875540000000000
C      -2.063340000000000     -3.604710000000000      0.487980000000000
C      -0.308610000000000     -3.098340000000000     -1.209950000000000
C       0.314650000000000     -3.029630000000000      1.194190000000000
H      -2.855270000000000     -3.370050000000000     -0.256660000000000
H      -1.812830000000000     -4.681900000000000      0.420330000000000
H      -2.455710000000000     -3.399950000000000      1.500790000000000
H       0.577580000000000     -2.481620000000000     -1.461390000000000
H      -0.008480000000000     -4.166600000000000     -1.272800000000000
H      -1.082940000000000     -2.901810000000000     -1.981590000000000
H       1.238250000000000     -2.478380000000000      0.908450000000000
H       0.064610000000000     -2.725630000000000      2.219750000000000
H       0.556990000000000     -4.113670000000000      1.206060000000000
C       1.066890000000000      1.951780000000000      2.218860000000000
C      -0.587150000000000      2.798380000000000      0.765100000000000
O       0.512430000000000      1.923510000000000      0.918400000000000
C       1.523410000000000      0.548060000000000      2.623080000000000
C      -0.125900000000000      4.234070000000000      0.616060000000000
H       1.952310000000000      2.618420000000000      2.207400000000000
H       0.354580000000000      2.309400000000000      2.993140000000000
H      -1.136130000000000      2.502240000000000     -0.150700000000000
H      -1.330170000000000      2.714120000000000      1.576670000000000
H       0.585210000000000      4.314080000000000     -0.231680000000000
H      -1.006740000000000      4.880870000000000      0.425080000000000
H       0.370170000000000      4.561240000000000      1.552000000000000
H       0.672850000000000     -0.156200000000000      2.656340000000000
H       2.266290000000000      0.147090000000000      1.904960000000000
H       1.984920000000000      0.578580000000000      3.631380000000000
Na    -17.585290000000001     -0.142410000000000      8.108800000000000
C     -15.305510000000000     -1.727430000000000      6.368020000000000
C     -14.353450000000000     -0.721260000000000      8.208299999999999
O     -15.191480000000000     -0.520230000000000      7.090380000000000
C     -16.198830000000001     -1.502280000000000      5.156560000000000
C     -14.246750000000000      0.579360000000000      8.991759999999999
H     -14.310850000000000     -2.061520000000000      5.997470000000000
H     -15.774620000000001     -2.520050000000000      6.994280000000000
H     -14.780210000000000     -1.492760000000000      8.889250000000001
H     -13.326950000000000     -1.009610000000000      7.885580000000000
H     -15.251569999999999      0.898240000000000      9.342040000000001
H     -13.589219999999999      0.432860000000000      9.874810000000000
H     -13.814990000000000      1.377400000000000      8.351089999999999
H     -15.760540000000001     -0.722730000000000      4.497790000000000
H     -16.294270000000001     -2.446890000000000      4.580120000000000
H     -17.209720000000001     -1.176920000000000      5.482180000000000
Na    -13.750190000000000      1.023400000000000      5.516320000000000
Mg     -7.671420000000000     -1.683460000000000      5.874970000000000
H      -4.625490000000000     -2.056210000000000      5.534620000000000
C      -5.363060000000000     -3.964890000000000      4.763380000000000
C      -5.401740000000000     -2.817570000000000      5.755710000000000
C      -4.019520000000000     -4.681230000000000      4.860980000000000
H      -6.191100000000000     -4.671060000000000      4.991840000000000
H      -5.513600000000000     -3.560710000000000      3.738370000000000
H      -3.202800000000000     -3.960270000000000      4.642950000000000
H      -3.886670000000000     -5.073640000000000      5.892970000000000
C      -3.937200000000000     -5.837250000000000      3.875310000000000
H      -5.320430000000000     -3.181250000000000      6.801550000000000
H      -4.734310000000000     -6.581000000000000      4.088610000000000
H      -4.049080000000000     -5.463680000000000      2.835240000000000
H      -2.948280000000000     -6.330460000000000      3.976410000000000
C      -7.561400000000000      1.304490000000000      6.930700000000000
C      -8.511559999999999      2.312150000000000      6.944260000000000
C      -9.656440000000000      1.796710000000000      6.354830000000000
C      -9.351490000000000      0.502920000000000      5.993580000000000
N      -8.093680000000001      0.214980000000000      6.353770000000000
C     -10.253119999999999     -0.505310000000000      5.303000000000000
N      -9.476419999999999     -1.711050000000000      4.943280000000000
C     -10.103040000000000     -2.843610000000000      4.239050000000000
H      -8.387100000000000      3.310150000000000      7.342120000000000
H      -6.553230000000000      1.365740000000000      7.320170000000000
H     -10.596539999999999      2.307380000000000      6.199430000000000
H     -10.657030000000001     -0.039350000000000      4.384430000000000
H     -11.077070000000001     -0.758260000000000      6.001180000000000
C     -10.552330000000000     -2.398140000000000      2.834630000000000
C      -9.061900000000000     -3.967110000000000      4.084210000000000
C     -11.301800000000000     -3.384680000000000      5.036920000000000
H      -9.681820000000000     -2.016370000000000      2.257030000000000
H     -10.999409999999999     -3.247870000000000      2.276050000000000
H     -11.314170000000001     -1.594640000000000      2.891090000000000
H      -8.716780000000000     -4.323880000000000      5.078030000000000
H      -9.498300000000000     -4.833090000000000      3.537910000000000
H      -8.178470000000001     -3.609800000000000      3.512790000000000
H     -10.978350000000001     -3.702010000000000      6.051620000000000
H     -12.089829999999999     -2.612250000000000      5.139050000000000
H     -11.752599999999999     -4.258240000000000      4.518730000000000

-C 0
6-31g(d,p)
****
-H 0
6-31g(d,p)
****
-Mg 0
6-31g(d,p)
****
-N 0
6-31+g(d,p)
****
-Na 0
6-31g(d,p)
****
-O 0
6-31+g(d,p)
****


