%chk=lowest10_c1_a2_speciation7_speciationDFT38_speciationDFT38_rank02_E221.41.chk
%nprocshared=20
%mem=40GB
#p opt=loose PM7/gen scf=xqc 

lowest10_c1_a2_speciation7_speciationDFT38_speciationDFT38_rank02_E221.41 DFT input

0 1
Mg     -0.688190000000000     -0.473910000000000      0.460630000000000
C       0.406510000000000      2.502270000000000     -0.455020000000000
C       1.870540000000000      1.558970000000000      1.185880000000000
O       0.612900000000000      1.520860000000000      0.546000000000000
C       1.524820000000000      2.625420000000000     -1.492600000000000
C       2.044980000000000      2.797040000000000      2.051960000000000
H      -0.496050000000000      2.182510000000000     -1.012080000000000
H       0.161490000000000      3.483950000000000     -0.001410000000000
H       1.914230000000000      0.678060000000000      1.854570000000000
H       2.709210000000000      1.413040000000000      0.477020000000000
H       2.993380000000000      2.709320000000000      2.621370000000000
H       1.199570000000000      2.884950000000000      2.765290000000000
H       2.088390000000000      3.704510000000000      1.418540000000000
H       1.765910000000000      1.638660000000000     -1.924820000000000
H       2.434970000000000      3.067740000000000     -1.040010000000000
H       1.190610000000000      3.287140000000000     -2.316720000000000
H      -1.942640000000000      0.267560000000000      2.697430000000000
C      -1.052020000000000     -1.659900000000000      3.245430000000000
C      -1.790460000000000     -0.739260000000000      2.259220000000000
C       0.377530000000000     -1.217480000000000      3.616360000000000
H      -1.658890000000000     -1.739660000000000      4.171220000000000
H      -0.973850000000000     -2.669360000000000      2.787800000000000
H       0.797560000000000     -1.960620000000000      4.331250000000000
H       1.020270000000000     -1.228180000000000      2.713050000000000
C       0.445210000000000      0.157840000000000      4.280030000000000
H      -2.772870000000000     -1.175300000000000      1.993790000000000
H       0.084480000000000      0.942140000000000      3.587160000000000
H      -0.166520000000000      0.175800000000000      5.205600000000000
H       1.499300000000000      0.392340000000000      4.546720000000000
C       3.016470000000000     -1.273610000000000     -0.507110000000000
C       2.219420000000000     -2.194940000000000      0.144100000000000
C       0.998500000000000     -2.192220000000000     -0.502880000000000
C       1.088230000000000     -1.283440000000000     -1.468940000000000
N       2.374560000000000     -0.722170000000000     -1.473820000000000
C      -0.025920000000000     -0.862900000000000     -2.395360000000000
N      -1.131520000000000     -0.328090000000000     -1.590480000000000
C      -2.418020000000000     -0.002500000000000     -2.253120000000000
H       2.487370000000000     -2.776060000000000      1.018280000000000
H       4.033660000000000     -1.018550000000000     -0.253380000000000
H       0.123670000000000     -2.772540000000000     -0.242540000000000
H      -0.343790000000000     -1.740290000000000     -2.988970000000000
H       0.357890000000000     -0.072030000000000     -3.073590000000000
C      -3.108270000000000     -1.282280000000000     -2.763070000000000
C      -3.340210000000000      0.681050000000000     -1.229850000000000
C      -2.199060000000000      0.967600000000000     -3.438770000000000
H      -3.301730000000000     -1.981480000000000     -1.923170000000000
H      -4.077380000000000     -1.035090000000000     -3.250120000000000
H      -2.489290000000000     -1.800420000000000     -3.521630000000000
H      -2.891960000000000      1.628710000000000     -0.863910000000000
H      -4.326240000000000      0.920650000000000     -1.688150000000000
H      -3.514630000000000      0.015200000000000     -0.358800000000000
H      -1.705830000000000      1.902550000000000     -3.097420000000000
H      -1.571270000000000      0.507540000000000     -4.230300000000000
H      -3.169630000000000      1.243660000000000     -3.907040000000000
Na     -0.558460000000000     -6.115790000000000    -11.551589999999999
C      -3.539960000000000     -6.124230000000000    -10.390169999999999
C      -3.563190000000000     -4.537710000000000    -12.116920000000000
O      -2.803510000000000     -5.135860000000000    -11.084020000000001
C      -3.367630000000000     -7.489800000000000    -11.047610000000001
C      -4.320850000000000     -3.315050000000000    -11.605680000000000
H      -3.140190000000000     -6.181580000000000     -9.355520000000000
H      -4.618490000000000     -5.866700000000000    -10.290020000000000
H      -2.856360000000000     -4.207730000000000    -12.907870000000001
H      -4.262620000000000     -5.252630000000000    -12.605060000000000
H      -3.614790000000000     -2.563500000000000    -11.195610000000000
H      -4.880470000000000     -2.851320000000000    -12.444570000000001
H      -5.042310000000000     -3.603860000000000    -10.813890000000001
H      -2.293200000000000     -7.767580000000000    -11.076050000000000
H      -3.919760000000000     -8.254770000000001    -10.463340000000001
H      -3.766050000000000     -7.478740000000000    -12.082590000000000
C      -1.563610000000000     -7.070710000000000    -14.631010000000000
C       0.786230000000000     -7.353550000000000    -14.348170000000000
O      -0.419170000000000     -6.810960000000000    -13.837410000000000
C      -1.910090000000000     -8.555520000000000    -14.747629999999999
C       1.200660000000000     -6.762720000000000    -15.695890000000000
H      -2.418740000000000     -6.582690000000000    -14.118050000000000
H      -1.495910000000000     -6.581520000000000    -15.624150000000000
H       1.583750000000000     -7.086330000000000    -13.622040000000000
H       0.766340000000000     -8.462730000000001    -14.369400000000001
H       1.233770000000000     -5.654780000000000    -15.631570000000000
H       2.209570000000000     -7.139000000000000    -15.965970000000000
H       0.500690000000000     -7.071180000000000    -16.498329999999999
H      -2.003210000000000     -9.007830000000000    -13.737940000000000
H      -2.877470000000000     -8.661510000000000    -15.280390000000001
H      -1.143350000000000     -9.100479999999999    -15.334260000000000
Na     -1.879620000000000     -3.316570000000000     -9.812410000000000
C       1.196180000000000     -4.596050000000000     -9.619800000000000
C       0.945530000000000     -3.153100000000000    -11.444900000000001
O       0.301900000000000     -4.059840000000000    -10.572780000000000
C       0.387920000000000     -5.257550000000000     -8.510809999999999
C       1.726600000000000     -3.874440000000000    -12.541320000000001
H       1.834510000000000     -5.374430000000000    -10.090050000000000
H       1.826870000000000     -3.810360000000000     -9.146300000000000
H       0.151250000000000     -2.550740000000000    -11.935650000000001
H       1.587800000000000     -2.426380000000000    -10.899820000000000
H       1.052780000000000     -4.549780000000000    -13.107720000000000
H       2.154250000000000     -3.127240000000000    -13.242150000000001
H       2.560400000000000     -4.464620000000000    -12.109520000000000
H      -0.263200000000000     -6.053390000000000     -8.931800000000001
H       1.072190000000000     -5.711510000000000     -7.763560000000000
H      -0.248940000000000     -4.504910000000000     -8.000880000000000
C      -1.214990000000000     -1.274000000000000     -7.279570000000000
C      -2.902080000000000     -2.732780000000000     -6.661040000000000
O      -1.955790000000000     -2.411240000000000     -7.650910000000000
C      -0.232390000000000     -0.962540000000000     -8.400650000000001
C      -3.648310000000000     -3.982930000000000     -7.106810000000000
H      -1.879920000000000     -0.390530000000000     -7.148620000000000
H      -0.631300000000000     -1.469710000000000     -6.351980000000000
H      -2.400740000000000     -2.960010000000000     -5.694180000000000
H      -3.643180000000000     -1.910630000000000     -6.540140000000000
H      -2.933110000000000     -4.823650000000000     -7.234170000000000
H      -4.406320000000000     -4.266950000000000     -6.347640000000000
H      -4.159370000000000     -3.797230000000000     -8.076370000000001
H      -0.782040000000000     -0.762770000000000     -9.345929999999999
H       0.376580000000000     -0.072060000000000     -8.141330000000000
H       0.445460000000000     -1.826860000000000     -8.558940000000000
Mg     -9.701639999999999     -9.455980000000000    -13.739620000000000
C      -9.596530000000000     -8.139270000000000    -16.829570000000000
C     -11.246720000000000     -7.011150000000000    -15.521030000000000
O     -10.383720000000000     -8.123189999999999    -15.650690000000001
C      -8.796170000000000     -6.860750000000000    -17.091229999999999
C     -12.358900000000000     -6.998090000000000    -16.562989999999999
H      -8.850740000000000     -8.947410000000000    -16.690610000000000
H     -10.205370000000000     -8.427940000000000    -17.710690000000000
H     -11.728510000000000     -7.094630000000000    -14.527329999999999
H     -10.690890000000000     -6.053250000000000    -15.483940000000000
H     -13.057750000000000     -6.166280000000000    -16.335470000000001
H     -12.917949999999999     -7.956320000000000    -16.538090000000000
H     -11.941210000000000     -6.840510000000000    -17.577059999999999
H      -8.192130000000001     -6.593750000000000    -16.203910000000000
H      -9.468170000000001     -6.019390000000000    -17.355250000000002
H      -8.107740000000000     -7.026180000000000    -17.944659999999999
H     -11.777229999999999    -11.131990000000000    -14.125310000000001
C     -12.079409999999999    -10.380520000000001    -12.091749999999999
C     -11.179919999999999    -10.917009999999999    -13.216070000000000
C     -12.756550000000001     -9.029350000000001    -12.393470000000001
H     -12.858150000000000    -11.138050000000000    -11.861649999999999
H     -11.451530000000000    -10.237600000000000    -11.186290000000000
H     -13.361219999999999     -8.739160000000000    -11.505190000000001
H     -11.984180000000000     -8.247030000000001    -12.541960000000000
C     -13.691380000000001     -9.061710000000000    -13.602539999999999
H     -10.679209999999999    -11.849010000000000    -12.886189999999999
H     -13.126490000000000     -9.286870000000000    -14.528140000000000
H     -14.486770000000000     -9.822730000000000    -13.461029999999999
H     -14.172310000000000     -8.066590000000000    -13.726419999999999
C      -9.242960000000000     -5.624200000000000    -12.944839999999999
C      -9.543630000000000     -6.539010000000000    -11.953329999999999
C      -8.709910000000001     -7.622370000000000    -12.147110000000000
C      -7.978010000000000     -7.345990000000000    -13.219600000000000
N      -8.311180000000000     -6.072070000000000    -13.708729999999999
C      -6.972690000000000     -8.271960000000000    -13.854030000000000
N      -7.668120000000000     -9.489110000000000    -14.296170000000000
C      -6.871480000000000    -10.633110000000000    -14.801750000000000
H     -10.308059999999999     -6.441890000000000    -11.192040000000000
H      -9.717730000000000     -4.665430000000000    -13.088680000000000
H      -8.683900000000000     -8.537039999999999    -11.571210000000001
H      -6.188120000000000     -8.500120000000001    -13.106980000000000
H      -6.517430000000000     -7.760670000000000    -14.727980000000001
C      -6.011680000000000    -11.244890000000000    -13.677790000000000
C      -7.835790000000000    -11.709490000000001    -15.326639999999999
C      -5.953800000000000    -10.192420000000000    -15.965760000000000
H      -6.652430000000000    -11.583449999999999    -12.837030000000000
H      -5.439470000000000    -12.119280000000000    -14.059720000000000
H      -5.269280000000000    -10.517320000000000    -13.290929999999999
H      -8.457570000000000    -11.312099999999999    -16.156240000000000
H      -7.270420000000000    -12.588320000000000    -15.710649999999999
H      -8.510180000000000    -12.057449999999999    -14.516450000000001
H      -6.550500000000000     -9.753700000000000    -16.793389999999999
H      -5.210160000000000     -9.440060000000001    -15.632550000000000
H      -5.387310000000000    -11.059559999999999    -16.371279999999999

-C 0
6-31g(d,p)
****
-H 0
6-31g(d,p)
****
-Mg 0
6-31g(d,p)
****
-N 0
6-31+g(d,p)
****
-Na 0
6-31g(d,p)
****
-O 0
6-31+g(d,p)
****


