%chk=lowest10_c1_a2_speciation0_speciationDFT38_speciationDFT38_rank05_E179.86.chk
%nprocshared=20
%mem=40GB
#p opt=loose PM7/gen scf=xqc 

lowest10_c1_a2_speciation0_speciationDFT38_speciationDFT38_rank05_E179.86 DFT input

0 1
Mg     -0.096460000000000      0.821350000000000     -0.532810000000000
C      -1.688000000000000     -1.388480000000000      1.314860000000000
C      -1.223760000000000     -2.304340000000000     -0.847340000000000
O      -1.310340000000000     -1.156760000000000     -0.030880000000000
C      -0.914800000000000     -2.496720000000000      2.033680000000000
C      -2.582820000000000     -2.935470000000000     -1.106000000000000
H      -1.459140000000000     -0.451060000000000      1.858620000000000
H      -2.783540000000000     -1.537590000000000      1.396960000000000
H      -0.822360000000000     -1.970430000000000     -1.823230000000000
H      -0.478010000000000     -3.032970000000000     -0.473070000000000
H      -2.467620000000000     -3.750730000000000     -1.849840000000000
H      -3.285900000000000     -2.175410000000000     -1.505280000000000
H      -2.992080000000000     -3.358320000000000     -0.167910000000000
H       0.172170000000000     -2.344650000000000      1.931820000000000
H      -1.191160000000000     -3.492960000000000      1.633930000000000
H      -1.157950000000000     -2.473800000000000      3.114710000000000
H      -2.196350000000000      1.732430000000000     -1.898400000000000
C      -0.606190000000000      1.705080000000000     -3.409220000000000
C      -1.119870000000000      1.982100000000000     -1.985890000000000
C      -0.662460000000000      0.230830000000000     -3.856740000000000
H      -1.196110000000000      2.321750000000000     -4.118630000000000
H       0.456710000000000      2.023820000000000     -3.465030000000000
H      -0.269790000000000      0.166500000000000     -4.896770000000000
H       0.002380000000000     -0.381580000000000     -3.215020000000000
C      -2.071900000000000     -0.360830000000000     -3.852310000000000
H      -0.966980000000000      3.046820000000000     -1.725380000000000
H      -2.488910000000000     -0.363160000000000     -2.827060000000000
H      -2.741790000000000      0.220160000000000     -4.519290000000000
H      -2.037400000000000     -1.412690000000000     -4.212250000000000
C       2.266030000000000     -2.302020000000000     -0.891850000000000
C       2.415800000000000     -1.165100000000000     -1.651690000000000
C       2.313210000000000     -0.080760000000000     -0.797880000000000
C       2.082110000000000     -0.541440000000000      0.436300000000000
N       2.068710000000000     -1.949850000000000      0.450050000000000
C       1.819180000000000      0.299960000000000      1.656860000000000
N       0.623440000000000      1.118480000000000      1.420260000000000
C       0.245830000000000      2.146550000000000      2.419780000000000
H       2.561890000000000     -1.139610000000000     -2.723070000000000
H       2.278790000000000     -3.317530000000000     -1.261010000000000
H       2.355480000000000      0.961870000000000     -1.089510000000000
H       2.707310000000000      0.927570000000000      1.857040000000000
H       1.638810000000000     -0.379140000000000      2.516700000000000
C       1.294760000000000      3.274900000000000      2.462580000000000
C      -1.111250000000000      2.748560000000000      2.019620000000000
C       0.106960000000000      1.521940000000000      3.829290000000000
H       1.387280000000000      3.756790000000000      1.467040000000000
H       1.004900000000000      4.048670000000000      3.207060000000000
H       2.290180000000000      2.893450000000000      2.767030000000000
H      -1.903290000000000      1.970320000000000      2.014630000000000
H      -1.414550000000000      3.544810000000000      2.736390000000000
H      -1.052410000000000      3.197050000000000      1.005840000000000
H      -0.646480000000000      0.705650000000000      3.826920000000000
H       1.072120000000000      1.106860000000000      4.187410000000000
H      -0.217510000000000      2.285750000000000      4.569900000000000
Na      3.670710000000000     -6.099070000000000     11.092549999999999
C       3.419020000000000     -9.144420000000000      9.895120000000000
C       1.528220000000000     -7.925320000000000      9.401840000000000
O       2.411800000000000     -8.313730000000000     10.431649999999999
C       4.362830000000000     -9.568390000000001     11.011380000000001
C       0.453540000000000     -7.017310000000000      9.982060000000001
H       2.977770000000000    -10.067780000000001      9.455080000000001
H       4.018460000000000     -8.596360000000001      9.132750000000000
H       2.066900000000000     -7.352300000000000      8.614089999999999
H       1.021390000000000     -8.813680000000000      8.960720000000000
H       0.917350000000000     -6.110120000000000     10.424350000000000
H      -0.248390000000000     -6.706390000000000      9.179430000000000
H      -0.116580000000000     -7.555190000000000     10.769290000000000
H       3.805060000000000    -10.129140000000000     11.791330000000000
H       5.160350000000000    -10.223010000000000     10.600190000000000
H       4.834300000000000     -8.675030000000000     11.473269999999999
Na      0.963960000000000     -9.952040000000000     11.909390000000000
Mg      4.546440000000000     -4.383410000000000      4.705740000000000
C       6.162830000000000     -1.685960000000000      3.543490000000000
C       6.012990000000000     -1.582320000000000      5.926310000000000
O       5.571560000000000     -2.190170000000000      4.729110000000000
C       7.693330000000000     -1.645880000000000      3.548490000000000
C       5.587420000000000     -0.123850000000000      6.041600000000000
H       5.875290000000000     -2.387030000000000      2.734650000000000
H       5.728710000000000     -0.702540000000000      3.269980000000000
H       5.533160000000000     -2.131870000000000      6.759500000000000
H       7.100390000000000     -1.720030000000000      6.089210000000000
H       5.867090000000000      0.255840000000000      7.046450000000000
H       4.488650000000000     -0.034770000000000      5.914370000000000
H       6.098910000000000      0.492180000000000      5.275840000000000
H       8.106150000000000     -2.635550000000000      3.819240000000000
H       8.067410000000001     -0.877440000000000      4.254720000000000
H       8.057710000000000     -1.382620000000000      2.534870000000000
H       2.102910000000000     -3.277080000000000      4.942930000000000
C       2.257290000000000     -4.587540000000000      6.691350000000000
C       2.464500000000000     -4.294180000000000      5.197040000000000
C       3.057600000000000     -3.682810000000000      7.648540000000000
H       1.175420000000000     -4.504030000000000      6.927130000000000
H       2.578710000000000     -5.632910000000000      6.884000000000000
H       2.835200000000000     -4.000290000000000      8.692170000000001
H       4.144620000000000     -3.826570000000000      7.480580000000000
C       2.713830000000000     -2.198000000000000      7.528540000000000
H       1.911990000000000     -5.035870000000000      4.586730000000000
H       2.974140000000000     -1.816360000000000      6.521930000000000
H       1.633360000000000     -2.030290000000000      7.718480000000000
H       3.298620000000000     -1.619680000000000      8.277250000000000
C       7.846080000000000     -4.461530000000000      6.854540000000000
C       6.774220000000000     -5.285600000000000      7.141370000000000
C       6.353990000000000     -5.822110000000000      5.940540000000000
C       7.140410000000000     -5.307320000000000      5.002830000000000
N       8.092340000000000     -4.459210000000000      5.592840000000000
C       7.010520000000000     -5.552210000000000      3.520820000000000
N       5.693950000000000     -5.072970000000000      3.077800000000000
C       5.251500000000000     -5.353240000000000      1.690290000000000
H       6.327300000000000     -5.452960000000000      8.113820000000000
H       8.407999999999999     -3.879470000000000      7.569360000000000
H       5.521640000000000     -6.493540000000000      5.781840000000000
H       7.130930000000000     -6.636650000000000      3.334200000000000
H       7.811080000000000     -4.992310000000000      2.993360000000000
C       5.034390000000000     -6.864090000000000      1.474930000000000
C       3.921190000000000     -4.625200000000000      1.443890000000000
C       6.287590000000000     -4.833730000000000      0.665840000000000
H       4.279370000000000     -7.255490000000000      2.188140000000000
H       4.677240000000000     -7.060790000000000      0.439630000000000
H       5.977270000000000     -7.433130000000000      1.604610000000000
H       4.046680000000000     -3.529350000000000      1.566250000000000
H       3.555030000000000     -4.819800000000000      0.411020000000000
H       3.145790000000000     -4.973250000000000      2.157840000000000
H       6.457410000000000     -3.743760000000000      0.795540000000000
H       7.260990000000000     -5.356430000000000      0.771590000000000
H       5.933000000000000     -5.004780000000000     -0.374600000000000

-C 0
6-31g(d,p)
****
-H 0
6-31g(d,p)
****
-Mg 0
6-31g(d,p)
****
-N 0
6-31+g(d,p)
****
-Na 0
6-31g(d,p)
****
-O 0
6-31+g(d,p)
****


