%chk=lowest10_c1_a2_speciation7_speciationDFT1_speciationDFT37b_rank08_E206.69.chk
%nprocshared=20
%mem=40GB
#p opt=loose PM7/gen scf=xqc 

lowest10_c1_a2_speciation7_speciationDFT1_speciationDFT37b_rank08_E206.69 DFT input

0 1
Mg      0.185580000000000     -0.529000000000000     -0.003870000000000
C       1.309530000000000      0.421580000000000     -2.839300000000000
C       2.990720000000000     -0.702780000000000     -1.575750000000000
O       1.912190000000000      0.208440000000000     -1.577410000000000
C       0.727370000000000     -0.839420000000000     -3.477030000000000
C       4.223670000000000     -0.122050000000000     -2.249040000000000
H       0.456520000000000      1.099940000000000     -2.654650000000000
H       1.975290000000000      0.977650000000000     -3.528750000000000
H       3.244290000000000     -0.885330000000000     -0.508580000000000
H       2.719100000000000     -1.697660000000000     -1.984420000000000
H       4.446680000000000      0.876290000000000     -1.817130000000000
H       5.088540000000000     -0.796060000000000     -2.079290000000000
H       4.054170000000000     -0.028930000000000     -3.340430000000000
H       0.134430000000000     -1.411160000000000     -2.735970000000000
H       0.064500000000000     -0.550300000000000     -4.319260000000000
H       1.535530000000000     -1.481960000000000     -3.878460000000000
H      -0.719400000000000     -2.953990000000000     -0.259470000000000
C       0.699700000000000     -3.012710000000000      1.394430000000000
C       0.298440000000000     -2.596210000000000     -0.005630000000000
C      -0.232450000000000     -2.378850000000000      2.433190000000000
H       0.652070000000000     -4.118740000000000      1.441080000000000
H       1.741360000000000     -2.676770000000000      1.597010000000000
H      -0.088480000000000     -1.278000000000000      2.439680000000000
H      -1.293550000000000     -2.588770000000000      2.182110000000000
C       0.050490000000000     -2.934380000000000      3.823080000000000
H       1.028990000000000     -2.953580000000000     -0.758680000000000
H      -0.144450000000000     -4.028170000000000      3.828400000000000
H       1.105670000000000     -2.748270000000000      4.114770000000000
H      -0.620290000000000     -2.451560000000000      4.564320000000000
C       0.197250000000000      1.343230000000000      3.313820000000000
C       1.355380000000000      1.126990000000000      2.594050000000000
C       1.098570000000000      1.526040000000000      1.296760000000000
C      -0.169120000000000      1.929840000000000      1.273230000000000
N      -0.723650000000000      1.830820000000000      2.556500000000000
C      -0.939290000000000      2.419590000000000      0.070420000000000
N      -1.214340000000000      1.325100000000000     -0.876880000000000
C      -2.576520000000000      0.736100000000000     -0.884100000000000
H       2.278490000000000      0.697730000000000      2.968800000000000
H       0.047410000000000      1.132740000000000      4.359350000000000
H       1.789150000000000      1.494910000000000      0.471230000000000
H      -0.335690000000000      3.196890000000000     -0.444610000000000
H      -1.867330000000000      2.901800000000000      0.417040000000000
C      -3.622050000000000      1.785750000000000     -1.308630000000000
C      -2.590840000000000     -0.396300000000000     -1.930460000000000
C      -2.950740000000000      0.128310000000000      0.484720000000000
H      -3.324850000000000      2.250720000000000     -2.272600000000000
H      -4.618110000000000      1.309770000000000     -1.437650000000000
H      -3.746690000000000      2.582590000000000     -0.551000000000000
H      -1.886540000000000     -1.204160000000000     -1.645150000000000
H      -3.601190000000000     -0.851180000000000     -2.017300000000000
H      -2.294730000000000     -0.012840000000000     -2.930480000000000
H      -2.265670000000000     -0.704840000000000      0.749420000000000
H      -2.908460000000000      0.887840000000000      1.288970000000000
H      -3.986420000000000     -0.276900000000000      0.459550000000000
Na     -5.970900000000000     -7.018270000000000     -1.424200000000000
C      -5.760570000000000     -7.934630000000000     -4.477730000000000
C      -8.014600000000000     -7.371900000000000     -4.153390000000000
O      -6.845870000000000     -7.916750000000000     -3.570800000000000
C      -4.965870000000000     -6.635030000000000     -4.398560000000000
C      -8.858440000000000     -8.458100000000000     -4.815710000000000
H      -5.089820000000000     -8.771430000000001     -4.188950000000000
H      -6.078090000000000     -8.141439999999999     -5.524540000000000
H      -8.613080000000000     -6.909420000000000     -3.339770000000000
H      -7.793430000000000     -6.556160000000000     -4.877090000000000
H      -9.152160000000000     -9.228740000000000     -4.073070000000000
H      -9.779949999999999     -8.003570000000000     -5.236070000000000
H      -8.295280000000000     -8.944750000000001     -5.638440000000000
H      -4.591240000000000     -6.477110000000000     -3.365620000000000
H      -4.098920000000000     -6.688300000000000     -5.089300000000000
H      -5.598310000000000     -5.771810000000000     -4.689640000000000
C      -6.996860000000000     -3.910420000000000     -2.225340000000000
C      -6.257950000000000     -4.031150000000000      0.038210000000000
O      -6.609320000000000     -4.734950000000000     -1.140460000000000
C      -5.886760000000000     -2.984320000000000     -2.722210000000000
C      -7.417100000000000     -3.241750000000000      0.645960000000000
H      -7.243990000000000     -4.592960000000000     -3.065290000000000
H      -7.933020000000000     -3.356260000000000     -2.008460000000000
H      -5.965060000000000     -4.798530000000000      0.786620000000000
H      -5.355940000000000     -3.400950000000000     -0.106360000000000
H      -8.292360000000000     -3.908010000000000      0.797530000000000
H      -7.103790000000000     -2.828100000000000      1.627290000000000
H      -7.702200000000000     -2.389880000000000     -0.003720000000000
H      -4.973640000000000     -3.571130000000000     -2.956090000000000
H      -6.226940000000000     -2.468040000000000     -3.643070000000000
H      -5.652810000000000     -2.206590000000000     -1.968480000000000
Na     -7.504790000000000     -9.995559999999999     -2.576420000000000
C      -5.893790000000000     -9.501360000000000      0.297630000000000
C      -8.116610000000000     -8.774910000000000      0.390990000000000
O      -6.988400000000000     -8.987920000000001     -0.432860000000000
C      -4.863730000000000    -10.044600000000001     -0.684690000000000
C      -8.003010000000000     -7.477800000000000      1.189310000000000
H      -5.412710000000000     -8.690640000000000      0.885590000000000
H      -6.190480000000000    -10.341630000000000      0.964850000000000
H      -8.998580000000000     -8.683680000000001     -0.278650000000000
H      -8.324669999999999     -9.643240000000000      1.054570000000000
H      -7.854840000000000     -6.619120000000000      0.502550000000000
H      -8.938120000000000     -7.316320000000000      1.765390000000000
H      -7.156920000000000     -7.526690000000000      1.904640000000000
H      -4.534370000000000     -9.242520000000001     -1.379490000000000
H      -3.979450000000000    -10.426700000000000     -0.132650000000000
H      -5.300950000000000    -10.875370000000000     -1.276940000000000
C      -7.719270000000000    -13.241339999999999     -1.932110000000000
C      -6.429920000000000    -12.920900000000000     -3.828170000000000
O      -7.092660000000000    -12.290940000000001     -2.759010000000000
C      -8.440519999999999    -12.497100000000000     -0.816350000000000
C      -5.751210000000000    -11.844370000000000     -4.664420000000000
H      -8.476270000000000    -13.827230000000000     -2.500820000000000
H      -6.965530000000000    -13.915220000000000     -1.466540000000000
H      -5.642810000000000    -13.613630000000001     -3.453960000000000
H      -7.154070000000000    -13.460220000000000     -4.479520000000000
H      -5.020300000000000    -11.286849999999999     -4.040390000000000
H      -5.216230000000000    -12.305000000000000     -5.520670000000000
H      -6.508710000000000    -11.129870000000000     -5.053590000000000
H      -9.202850000000000    -11.811320000000000     -1.245210000000000
H      -8.942510000000000    -13.216540000000000     -0.136930000000000
H      -7.712320000000000    -11.899020000000000     -0.230330000000000
Mg    -13.362880000000001     -2.974640000000000     -5.917810000000000
H     -12.373910000000000     -0.218100000000000     -4.924810000000000
C     -10.475000000000000     -1.188620000000000     -5.406300000000000
C     -11.881819999999999     -1.208700000000000     -4.837510000000000
C      -9.613690000000000     -0.210550000000000     -4.612220000000000
H     -10.044829999999999     -2.212240000000000     -5.347540000000000
H     -10.522510000000000     -0.884280000000000     -6.474900000000000
H     -10.062450000000000      0.805170000000000     -4.669630000000000
H      -9.581180000000000     -0.530650000000000     -3.547700000000000
C      -8.194640000000000     -0.156950000000000     -5.158260000000000
H     -11.890650000000001     -1.567970000000000     -3.787200000000000
H      -7.722720000000000     -1.159710000000000     -5.097580000000000
H      -8.202959999999999      0.181340000000000     -6.216130000000000
H      -7.599530000000000      0.559770000000000     -4.555070000000000
C     -16.464749999999999     -2.352530000000000     -5.706560000000000
C     -17.564000000000000     -2.924480000000000     -6.325280000000000
C     -17.083770000000001     -3.918920000000000     -7.164440000000000
C     -15.712410000000000     -3.901350000000000     -7.033420000000000
N     -15.352990000000000     -2.963170000000000     -6.146950000000000
C     -14.699690000000000     -4.785350000000000     -7.740590000000000
N     -13.328820000000000     -4.319040000000000     -7.441090000000000
C     -12.148380000000000     -4.987140000000000     -8.016940000000000
H     -18.600320000000000     -2.651220000000000     -6.179660000000000
H     -16.480650000000001     -1.548440000000000     -4.982010000000000
H     -17.665109999999999     -4.570970000000000     -7.801450000000000
H     -14.881720000000000     -4.720520000000000     -8.830100000000000
H     -14.849980000000000     -5.825470000000000     -7.386300000000000
C     -12.151899999999999     -4.820720000000000     -9.548430000000000
C     -10.880310000000000     -4.317760000000000     -7.456530000000000
C     -12.128340000000000     -6.479160000000000     -7.640860000000000
H     -12.157560000000000     -3.741270000000000     -9.816660000000001
H     -11.250710000000000     -5.289600000000000     -9.997820000000001
H     -13.042640000000000     -5.298660000000000    -10.003909999999999
H     -10.835610000000001     -4.422390000000000     -6.351430000000000
H      -9.966930000000000     -4.786880000000000     -7.885860000000000
H     -10.862399999999999     -3.235610000000000     -7.708170000000000
H     -12.128159999999999     -6.598090000000000     -6.535930000000000
H     -13.011039999999999     -7.006840000000000     -8.056440000000000
H     -11.219600000000000     -6.971190000000000     -8.049700000000000

-C 0
6-31g(d,p)
****
-H 0
6-31g(d,p)
****
-Mg 0
6-31g(d,p)
****
-N 0
6-31+g(d,p)
****
-Na 0
6-31g(d,p)
****
-O 0
6-31+g(d,p)
****


