%chk=lowest10_c1_a2_speciation0_speciationDFT1_speciationDFT37b_rank06_E165.03.chk
%nprocshared=20
%mem=40GB
#p opt=loose PM7/gen scf=xqc 

lowest10_c1_a2_speciation0_speciationDFT1_speciationDFT37b_rank06_E165.03 DFT input

0 1
Mg     -0.047660000000000     -0.194470000000000      0.555570000000000
C       1.529020000000000     -2.759730000000000     -0.485060000000000
C       2.480910000000000     -1.920370000000000      1.534260000000000
O       1.906640000000000     -1.630510000000000      0.277910000000000
C       0.497790000000000     -3.660080000000000      0.194630000000000
C       3.879800000000000     -2.497750000000000      1.395240000000000
H       1.043300000000000     -2.358980000000000     -1.392900000000000
H       2.408110000000000     -3.323060000000000     -0.855830000000000
H       2.567880000000000     -0.948970000000000      2.068600000000000
H       1.829130000000000     -2.548460000000000      2.175720000000000
H       4.484290000000000     -1.847760000000000      0.728080000000000
H       4.360620000000000     -2.546080000000000      2.393970000000000
H       3.828070000000000     -3.521790000000000      0.974280000000000
H      -0.322150000000000     -3.054680000000000      0.629570000000000
H       0.068210000000000     -4.355270000000000     -0.556720000000000
H       0.974610000000000     -4.263530000000000      0.991860000000000
H      -1.893660000000000     -0.992330000000000      2.183870000000000
C      -0.743930000000000      0.502840000000000      3.275890000000000
C      -0.839960000000000     -0.720470000000000      2.388250000000000
C      -1.367760000000000      1.721110000000000      2.585490000000000
H      -1.271310000000000      0.270320000000000      4.222000000000000
H       0.326110000000000      0.722420000000000      3.490150000000000
H      -0.759240000000000      1.998970000000000      1.699710000000000
H      -2.396620000000000      1.487000000000000      2.239720000000000
C      -1.440580000000000      2.905280000000000      3.541220000000000
H      -0.296420000000000     -1.582390000000000      2.824150000000000
H      -2.092950000000000      2.643640000000000      4.401680000000000
H      -0.429860000000000      3.173010000000000      3.915210000000000
H      -1.877330000000000      3.782960000000000      3.020150000000000
C       0.572210000000000      3.470260000000000     -0.225850000000000
C       1.563710000000000      2.655850000000000      0.287290000000000
C       1.584240000000000      1.517900000000000     -0.495120000000000
C       0.621010000000000      1.665620000000000     -1.401110000000000
N       0.003020000000000      2.914540000000000     -1.234150000000000
C       0.209810000000000      0.669000000000000     -2.457130000000000
N      -0.461850000000000     -0.500590000000000     -1.863250000000000
C      -1.941420000000000     -0.573950000000000     -1.946880000000000
H       2.180910000000000      2.856380000000000      1.155610000000000
H       0.283720000000000      4.437060000000000      0.154470000000000
H       2.241420000000000      0.672850000000000     -0.373110000000000
H       1.119210000000000      0.325070000000000     -2.994380000000000
H      -0.433030000000000      1.176940000000000     -3.193610000000000
C      -2.399920000000000     -0.659250000000000     -3.415540000000000
C      -2.386050000000000     -1.868000000000000     -1.234500000000000
C      -2.620090000000000      0.619880000000000     -1.241880000000000
H      -1.871120000000000     -1.488280000000000     -3.932020000000000
H      -3.493630000000000     -0.849020000000000     -3.469200000000000
H      -2.214150000000000      0.282280000000000     -3.966530000000000
H      -2.120290000000000     -1.835580000000000     -0.158010000000000
H      -3.487620000000000     -2.008730000000000     -1.301070000000000
H      -1.892590000000000     -2.755130000000000     -1.686610000000000
H      -2.389740000000000      0.623230000000000     -0.155380000000000
H      -2.290780000000000      1.584060000000000     -1.674500000000000
H      -3.724870000000000      0.561360000000000     -1.356310000000000
Na    -17.609279999999998      1.202180000000000      6.799840000000000
C     -15.329079999999999     -0.382940000000000      5.058910000000000
C     -14.377000000000001      0.623230000000000      6.899170000000000
O     -15.215030000000000      0.824260000000000      5.781260000000000
C     -16.222390000000001     -0.157740000000000      3.847470000000000
C     -14.270330000000000      1.923860000000000      7.682590000000000
H     -14.334420000000000     -0.717040000000000      4.688360000000000
H     -15.798200000000000     -1.175560000000000      5.685180000000000
H     -14.803750000000001     -0.148260000000000      7.580130000000000
H     -13.350500000000000      0.334880000000000      6.576430000000000
H     -15.275169999999999      2.242720000000000      8.032840000000000
H     -13.612810000000000      1.777390000000000      8.565650000000000
H     -13.838580000000000      2.721890000000000      7.041880000000000
H     -15.784079999999999      0.621820000000000      3.188740000000000
H     -16.317850000000000     -1.102340000000000      3.271010000000000
H     -17.233260000000001      0.167640000000000      4.173120000000000
Na    -13.773479999999999      2.368160000000000      4.206930000000000
Mg     -7.695230000000000     -0.338950000000000      4.565840000000000
H      -4.648870000000000     -0.712500000000000      4.226130000000000
C      -5.386600000000000     -2.621240000000000      3.454900000000000
C      -5.425230000000000     -1.473800000000000      4.447190000000000
C      -4.043440000000000     -3.338380000000000      3.552980000000000
H      -6.214890000000000     -3.327110000000000      3.683030000000000
H      -5.536850000000000     -2.216900000000000      2.429860000000000
H      -3.226620000000000     -2.618260000000000      3.336430000000000
H      -3.910700000000000     -3.730970000000000      4.584760000000000
C      -3.960370000000000     -4.493450000000000      2.566360000000000
H      -5.343750000000000     -1.837370000000000      5.493010000000000
H      -4.757470000000000     -5.237310000000000      2.779010000000000
H      -4.072070000000000     -4.119120000000000      1.526480000000000
H      -2.971220000000000     -4.986330000000000      2.667220000000000
C      -7.585190000000000      2.648930000000000      5.621690000000000
C      -8.535250000000000      3.656670000000000      5.635260000000000
C      -9.680170000000000      3.141390000000000      5.045760000000000
C      -9.375320000000000      1.847580000000000      4.684440000000000
N      -8.117559999999999      1.559500000000000      5.044690000000000
C     -10.276970000000000      0.839460000000000      3.993680000000000
N      -9.500299999999999     -0.366380000000000      3.634150000000000
C     -10.126799999999999     -1.499000000000000      2.929950000000000
H      -8.410679999999999      4.654650000000000      6.033170000000000
H      -6.577010000000000      2.710050000000000      6.011160000000000
H     -10.620189999999999      3.652190000000000      4.890350000000000
H     -10.680610000000000      1.305440000000000      3.075000000000000
H     -11.101139999999999      0.586610000000000      4.691630000000000
C     -10.576110000000000     -1.053670000000000      1.525490000000000
C      -9.085509999999999     -2.622370000000000      2.775220000000000
C     -11.325519999999999     -2.040170000000000      3.727810000000000
H      -9.705650000000000     -0.671770000000000      0.947900000000000
H     -11.022980000000000     -1.903520000000000      0.966920000000000
H     -11.338110000000000     -0.250310000000000      1.581890000000000
H      -8.740330000000000     -2.978950000000000      3.769080000000000
H      -9.521760000000000     -3.488470000000000      2.229010000000000
H      -8.202120000000001     -2.264960000000000      2.203780000000000
H     -11.002060000000000     -2.357420000000000      4.742530000000000
H     -12.113619999999999     -1.267810000000000      3.829910000000000
H     -11.776220000000000     -2.913790000000000      3.209650000000000

-C 0
6-31g(d,p)
****
-H 0
6-31g(d,p)
****
-Mg 0
6-31g(d,p)
****
-N 0
6-31+g(d,p)
****
-Na 0
6-31g(d,p)
****
-O 0
6-31+g(d,p)
****


