%chk=lowest10_c1_a2_speciation7_speciationDFT96_speciationDFT96_rank06_E230.50.chk
%nprocshared=20
%mem=40GB
#p opt=loose PM7/gen scf=xqc 

lowest10_c1_a2_speciation7_speciationDFT96_speciationDFT96_rank06_E230.50 DFT input

0 1
Mg     -0.162000000000000     -0.230080000000000      0.376100000000000
C       2.183530000000000      2.046500000000000      1.651730000000000
C       3.126540000000000      0.393980000000000      0.212090000000000
O       1.960550000000000      1.056110000000000      0.664730000000000
C       2.985420000000000      3.243200000000000      1.148960000000000
C       3.828330000000000     -0.417210000000000      1.297780000000000
H       1.180180000000000      2.422810000000000      1.946870000000000
H       2.628690000000000      1.627880000000000      2.574310000000000
H       2.796030000000000     -0.333980000000000     -0.555320000000000
H       3.816820000000000      1.081210000000000     -0.317670000000000
H       3.105120000000000     -1.093590000000000      1.798430000000000
H       4.630170000000000     -1.028820000000000      0.834130000000000
H       4.294840000000000      0.250860000000000      2.046940000000000
H       2.519680000000000      3.668740000000000      0.237350000000000
H       3.001460000000000      4.022790000000000      1.939220000000000
H       4.031850000000000      2.950640000000000      0.932510000000000
H      -0.871960000000000      0.770250000000000      3.084660000000000
C       0.606120000000000     -0.744860000000000      3.664130000000000
C      -0.551500000000000     -0.258400000000000      2.819470000000000
C       0.174390000000000     -0.818190000000000      5.118870000000000
H       0.926540000000000     -1.747010000000000      3.311820000000000
H       1.458210000000000     -0.046240000000000      3.553660000000000
H      -0.147820000000000      0.191430000000000      5.455170000000000
H      -0.681470000000000     -1.522110000000000      5.209290000000000
C       1.318170000000000     -1.299700000000000      5.996780000000000
H      -1.400300000000000     -0.973240000000000      2.823560000000000
H       1.644490000000000     -2.312870000000000      5.678470000000000
H       2.176760000000000     -0.598130000000000      5.925290000000000
H       0.971820000000000     -1.343750000000000      7.049070000000000
C      -2.770920000000000      0.772160000000000     -3.653700000000000
C      -3.097160000000000     -0.558370000000000     -3.711740000000000
C      -1.988670000000000     -1.285310000000000     -3.292940000000000
C      -1.018840000000000     -0.417450000000000     -2.970140000000000
N      -1.451830000000000      0.897700000000000     -3.198340000000000
C       0.390560000000000     -0.716490000000000     -2.495620000000000
N       0.521270000000000     -1.324200000000000     -1.160700000000000
C       0.347550000000000     -2.755580000000000     -0.869520000000000
H      -4.053410000000000     -0.950040000000000     -4.034720000000000
H      -3.409850000000000      1.604780000000000     -3.912870000000000
H      -1.939650000000000     -2.357830000000000     -3.259340000000000
H       0.900230000000000      0.269510000000000     -2.421230000000000
H       0.947970000000000     -1.288860000000000     -3.257390000000000
C       0.712750000000000     -3.616320000000000     -2.081710000000000
C       1.306230000000000     -3.104120000000000      0.285610000000000
C      -1.087560000000000     -3.032990000000000     -0.377440000000000
H       1.754100000000000     -3.385550000000000     -2.396270000000000
H       0.643940000000000     -4.693360000000000     -1.829230000000000
H       0.031750000000000     -3.412130000000000     -2.928160000000000
H       1.079610000000000     -2.485540000000000      1.177350000000000
H       1.211560000000000     -4.172210000000000      0.578240000000000
H       2.361360000000000     -2.906560000000000      0.000330000000000
H      -1.301470000000000     -2.476230000000000      0.562050000000000
H      -1.849770000000000     -2.731350000000000     -1.109220000000000
H      -1.221430000000000     -4.115650000000000     -0.167170000000000
C      -2.354550000000000      1.958430000000000     -0.238670000000000
C      -0.267500000000000      2.811360000000000     -0.936510000000000
O      -0.951200000000000      1.932200000000000     -0.065420000000000
C      -2.930740000000000      0.554110000000000     -0.043540000000000
C      -0.366920000000000      4.244870000000000     -0.458360000000000
H      -2.790430000000000      2.625580000000000      0.531860000000000
H      -2.667520000000000      2.312520000000000     -1.244540000000000
H       0.799200000000000      2.511680000000000     -0.958040000000000
H      -0.601390000000000      2.740420000000000     -1.984710000000000
H       0.013100000000000      4.322230000000000      0.580680000000000
H       0.238760000000000      4.891320000000000     -1.126440000000000
H      -1.425370000000000      4.572770000000000     -0.496740000000000
H      -2.531310000000000     -0.150340000000000     -0.795710000000000
H      -2.680790000000000      0.156570000000000      0.960560000000000
H      -4.034800000000000      0.581690000000000     -0.148830000000000
Na     13.094370000000000      4.378290000000000     -3.463450000000000
C      14.978280000000000      2.242870000000000     -4.913050000000000
C      13.311550000000000      2.757940000000000     -6.480700000000000
O      13.621119999999999      2.588960000000000     -5.110490000000000
C      15.839300000000000      3.492240000000000     -4.757420000000000
C      12.850470000000000      1.444540000000000     -7.107470000000000
H      15.045650000000000      1.653610000000000     -3.974120000000000
H      15.376550000000000      1.585620000000000     -5.718620000000000
H      12.480540000000000      3.491790000000000     -6.551100000000000
H      14.156359999999999      3.190470000000000     -7.061570000000000
H      11.953939999999999      1.056230000000000     -6.581330000000000
H      12.587040000000000      1.617080000000000     -8.171860000000001
H      13.656210000000000      0.683350000000000     -7.059990000000000
H      15.477169999999999      4.103350000000000     -3.904440000000000
H      16.891060000000000      3.195680000000000     -4.564140000000000
H      15.808070000000001      4.105850000000000     -5.680680000000000
C      13.706090000000000      6.766440000000000     -5.762160000000000
C      12.729640000000000      7.680490000000000     -3.788960000000000
O      13.059250000000000      6.516550000000000     -4.526850000000000
C      15.067930000000000      7.447270000000000     -5.619390000000000
C      11.719320000000000      8.585580000000000     -4.493820000000000
H      13.891970000000001      5.774580000000000     -6.224930000000000
H      13.045410000000000      7.305060000000000     -6.471820000000000
H      12.247780000000001      7.331590000000000     -2.850420000000000
H      13.633390000000000      8.238030000000000     -3.467130000000000
H      10.820000000000000      8.000870000000001     -4.780360000000000
H      11.415469999999999      9.401330000000000     -3.804960000000000
H      12.164870000000001      9.053970000000000     -5.394480000000000
H      15.714800000000000      6.867610000000000     -4.927770000000000
H      15.557169999999999      7.495310000000000     -6.614890000000000
H      14.958570000000000      8.486380000000000     -5.248760000000000
Na     11.945810000000000      1.112980000000000     -4.233910000000000
C      11.362170000000001      2.894100000000000     -1.480700000000000
C       9.913190000000000      3.461900000000000     -3.226190000000000
O      11.197010000000001      2.982240000000000     -2.880360000000000
C      12.589100000000000      2.042570000000000     -1.182730000000000
C       9.818370000000000      4.980220000000000     -3.092550000000000
H      11.530889999999999      3.904390000000000     -1.049720000000000
H      10.496050000000000      2.399780000000000     -0.992030000000000
H       9.743539999999999      3.203830000000000     -4.293520000000000
H       9.103540000000001      2.953830000000000     -2.656500000000000
H      10.598390000000000      5.465700000000000     -3.714570000000000
H       8.821030000000000      5.319650000000000     -3.442250000000000
H       9.942449999999999      5.292920000000000     -2.035580000000000
H      13.490019999999999      2.485600000000000     -1.658390000000000
H      12.751820000000000      1.986530000000000     -0.085590000000000
H      12.444450000000000      1.014250000000000     -1.574950000000000
C      10.513210000000001     -1.541380000000000     -2.856420000000000
C      12.747980000000000     -1.999550000000000     -3.250880000000000
O      11.750000000000000     -1.007940000000000     -3.263480000000000
C       9.473060000000000     -0.430930000000000     -2.920540000000000
C      14.061780000000001     -1.354570000000000     -3.671350000000000
H      10.187410000000000     -2.358320000000000     -3.539270000000000
H      10.567880000000001     -1.902770000000000     -1.805060000000000
H      12.880800000000001     -2.415430000000000     -2.226750000000000
H      12.511030000000000     -2.808430000000000     -3.978310000000000
H      14.326250000000000     -0.540700000000000     -2.962750000000000
H      14.875540000000001     -2.109150000000000     -3.673040000000000
H      13.965830000000000     -0.924270000000000     -4.691840000000000
H       9.391719999999999     -0.043510000000000     -3.959160000000000
H       8.482540000000000     -0.813650000000000     -2.598630000000000
H       9.769900000000000      0.402690000000000     -2.251030000000000
Mg      9.853960000000001      3.886590000000000      4.672860000000000
C      13.276050000000000      3.370400000000000      5.620110000000000
C      12.423710000000000      1.674680000000000      4.182000000000000
O      12.256700000000000      2.974610000000000      4.718970000000000
C      14.647410000000001      3.529060000000000      4.965930000000000
C      12.323580000000000      0.564950000000000      5.227590000000000
H      12.980940000000000      4.368250000000000      6.009700000000000
H      13.330670000000000      2.710200000000000      6.507290000000000
H      11.587470000000000      1.516090000000000      3.471450000000000
H      13.343470000000000      1.591390000000000      3.568540000000000
H      11.386310000000000      0.673180000000000      5.811590000000000
H      12.316580000000000     -0.419510000000000      4.715030000000000
H      13.194179999999999      0.582820000000000      5.912620000000000
H      14.587719999999999      4.215920000000000      4.097750000000000
H      15.355040000000001      3.952100000000000      5.709260000000000
H      15.047050000000000      2.549160000000000      4.637950000000000
H      10.516750000000000      4.904080000000000      7.489440000000000
C      10.307620000000000      2.778360000000000      7.957310000000000
C       9.884040000000001      4.033110000000000      7.219320000000000
C      10.143170000000000      2.978070000000000      9.458970000000001
H       9.683840000000000      1.925380000000000      7.616940000000000
H      11.366899999999999      2.557500000000000      7.717460000000000
H      10.767040000000000      3.838100000000000      9.786940000000000
H       9.077090000000000      3.197670000000000      9.686130000000000
C      10.571090000000000      1.732370000000000     10.220590000000000
H       8.808610000000000      4.255170000000000      7.381550000000000
H       9.949080000000000      0.864070000000000      9.915179999999999
H      11.640000000000001      1.507930000000000     10.017099999999999
H      10.439340000000000      1.906690000000000     11.308120000000001
C       8.629049999999999      6.687510000000000      0.907630000000000
C       7.384990000000000      6.109790000000000      0.958750000000000
C       7.555840000000000      4.772250000000000      1.285110000000000
C       8.863550000000000      4.543820000000000      1.449440000000000
N       9.598420000000001      5.718220000000000      1.202970000000000
C       9.537310000000000      3.228910000000000      1.778280000000000
N       9.289500000000000      2.696930000000000      3.130500000000000
C       8.095780000000000      1.923120000000000      3.513860000000000
H       6.449520000000000      6.620420000000000      0.770960000000000
H       8.843880000000000      7.722610000000000      0.678030000000000
H       6.759280000000000      4.055650000000000      1.368970000000000
H      10.631640000000001      3.421530000000000      1.726330000000000
H       9.320100000000000      2.475250000000000      1.002120000000000
C       7.503150000000000      1.150120000000000      2.325890000000000
C       8.545750000000000      0.906040000000000      4.579200000000000
C       7.049750000000000      2.845980000000000      4.172700000000000
H       8.276880000000000      0.483240000000000      1.887070000000000
H       6.649190000000000      0.526270000000000      2.658850000000000
H       7.139100000000000      1.837310000000000      1.539570000000000
H       8.983779999999999      1.430170000000000      5.454010000000000
H       7.689790000000000      0.294510000000000      4.938120000000000
H       9.321910000000001      0.224080000000000      4.171010000000000
H       7.469880000000000      3.332950000000000      5.080230000000000
H       6.710750000000000      3.649960000000000      3.504480000000000
H       6.157780000000000      2.262190000000000      4.485400000000000
C      10.199610000000000      7.006200000000000      4.216370000000000
C      12.083050000000000      5.956300000000000      3.266500000000000
O      11.071830000000000      5.892880000000000      4.252600000000000
C       8.778980000000001      6.555800000000000      4.555070000000000
C      13.205710000000000      6.883520000000000      3.692890000000000
H      10.529240000000000      7.739910000000000      4.980060000000000
H      10.161550000000000      7.507940000000000      3.224630000000000
H      12.492430000000001      4.934290000000000      3.133570000000000
H      11.705480000000000      6.246400000000000      2.268530000000000
H      13.609620000000000      6.561130000000000      4.674700000000000
H      14.013479999999999      6.851120000000000      2.932570000000000
H      12.822290000000001      7.921260000000000      3.770350000000000
H       8.408989999999999      5.824190000000000      3.811000000000000
H       8.746860000000000      6.078950000000000      5.555830000000000
H       8.094099999999999      7.428460000000000      4.555490000000000

-C 0
6-31g(d,p)
****
-H 0
6-31g(d,p)
****
-Mg 0
6-31g(d,p)
****
-N 0
6-31+g(d,p)
****
-Na 0
6-31g(d,p)
****
-O 0
6-31+g(d,p)
****


