%chk=lowest10_c1_a2_speciation7_speciationDFT38_speciationDFT96_rank10_E228.03.chk
%nprocshared=20
%mem=40GB
#p opt=loose PM7/gen scf=xqc 

lowest10_c1_a2_speciation7_speciationDFT38_speciationDFT96_rank10_E228.03 DFT input

0 1
Mg     -0.141760000000000     -0.230660000000000     -0.380870000000000
C      -2.417870000000000      2.045670000000000      1.011880000000000
C      -1.643310000000000      0.393340000000000      2.549010000000000
O      -1.452130000000000      1.055070000000000      1.312690000000000
C      -2.381970000000000      3.243050000000000      1.956570000000000
C      -2.934770000000000     -0.417870000000000      2.615020000000000
H      -2.172230000000000      2.421320000000000     -0.004920000000000
H      -3.439660000000000      1.627300000000000      0.937430000000000
H      -0.813660000000000     -0.334800000000000      2.646240000000000
H      -1.528610000000000      1.080440000000000      3.411650000000000
H      -3.007920000000000     -1.093170000000000      1.737550000000000
H      -2.931460000000000     -1.031430000000000      3.539930000000000
H      -3.818350000000000      0.249230000000000      2.649470000000000
H      -1.359740000000000      3.668550000000000      2.008880000000000
H      -3.074590000000000      4.022600000000000      1.575530000000000
H      -2.716800000000000      2.950800000000000      2.971250000000000
H      -2.131890000000000      0.769590000000000     -2.350410000000000
C      -3.372850000000000     -0.744500000000000     -1.359020000000000
C      -2.062580000000000     -0.259150000000000     -1.940530000000000
C      -4.416760000000000     -0.817470000000000     -2.459740000000000
H      -3.228350000000000     -1.746810000000000     -0.905520000000000
H      -3.702830000000000     -0.045760000000000     -0.565930000000000
H      -4.546730000000000      0.191450000000000     -2.908480000000000
H      -4.065340000000000     -1.521580000000000     -3.242940000000000
C      -5.749050000000000     -1.299810000000000     -1.909580000000000
H      -1.642860000000000     -0.974190000000000     -2.678290000000000
H      -5.636410000000000     -2.312880000000000     -1.467600000000000
H      -6.117370000000000     -0.598390000000000     -1.130630000000000
H      -6.486330000000000     -1.344430000000000     -2.736450000000000
C       4.652380000000000      0.772060000000000     -0.624260000000000
C       4.865810000000000     -0.558490000000000     -0.877890000000000
C       3.948800000000000     -1.285360000000000     -0.127390000000000
C       3.184320000000000     -0.417680000000000      0.551120000000000
N       3.598550000000000      0.897620000000000      0.290310000000000
C       2.068680000000000     -0.716650000000000      1.534270000000000
N       0.847350000000000     -1.324460000000000      0.979620000000000
C       0.682060000000000     -2.755810000000000      0.683660000000000
H       5.623650000000000     -0.950110000000000     -1.544480000000000
H       5.196380000000000      1.604710000000000     -1.047940000000000
H       3.895110000000000     -2.357960000000000     -0.101770000000000
H       1.749320000000000      0.269290000000000      1.938530000000000
H       2.449560000000000     -1.289050000000000      2.397940000000000
C       1.549220000000000     -3.616470000000000      1.606220000000000
C      -0.797620000000000     -3.104330000000000      0.936510000000000
C       0.973320000000000     -3.033330000000000     -0.805400000000000
H       1.300910000000000     -3.385560000000000      2.665330000000000
H       1.364990000000000     -4.693530000000000      1.420590000000000
H       2.622780000000000     -3.412250000000000      1.439850000000000
H      -1.456650000000000     -2.485740000000000      0.294470000000000
H      -1.003740000000000     -4.172430000000000      0.708340000000000
H      -1.077980000000000     -2.906720000000000      1.992970000000000
H       0.266630000000000     -2.476660000000000     -1.460510000000000
H       1.988160000000000     -2.731620000000000     -1.099580000000000
H       0.858150000000000     -4.115980000000000     -1.026470000000000
C       1.486640000000000      1.957880000000000     -1.971640000000000
C       1.047810000000000      2.811090000000000      0.184840000000000
O       0.635130000000000      1.931810000000000     -0.842730000000000
C       1.605490000000000      0.553500000000000     -2.568510000000000
C       0.683400000000000      4.244640000000000     -0.140220000000000
H       1.037280000000000      2.625230000000000     -2.734200000000000
H       2.514280000000000      2.311880000000000     -1.739770000000000
H       0.533310000000000      2.511410000000000      1.119490000000000
H       2.122510000000000      2.740230000000000      0.419750000000000
H      -0.406450000000000      4.322080000000000     -0.330570000000000
H       0.959130000000000      4.891060000000000      0.718420000000000
H       1.245830000000000      4.572650000000000     -1.037630000000000
H       2.057240000000000     -0.150950000000000     -1.846500000000000
H       0.610970000000000      0.155900000000000     -2.854230000000000
H       2.248640000000000      0.581020000000000     -3.472060000000000
Na     -1.104200000000000    -11.679650000000001     -7.402500000000000
C      -1.840780000000000     -9.774080000000000     -9.862730000000001
C      -3.676090000000000     -9.641719999999999     -8.408830000000000
O      -2.648600000000000    -10.463730000000000     -8.928710000000001
C      -0.674400000000000     -9.082330000000001     -9.164300000000001
C      -4.941090000000000     -9.738140000000000     -9.257849999999999
H      -1.428660000000000    -10.522169999999999    -10.572770000000000
H      -2.418740000000000     -9.049460000000000    -10.479469999999999
H      -3.911720000000000    -10.002950000000000     -7.385060000000000
H      -3.361980000000000     -8.579860000000000     -8.298140000000000
H      -5.303970000000000    -10.786160000000001     -9.297350000000000
H      -5.735510000000000     -9.107110000000000     -8.807650000000001
H      -4.747890000000000     -9.382730000000000    -10.290900000000001
H      -0.063270000000000     -9.826860000000000     -8.612360000000001
H      -0.033570000000000     -8.582810000000000     -9.920080000000000
H      -1.043410000000000     -8.317119999999999     -8.451359999999999
C      -1.225910000000000     -9.155370000000000     -5.170000000000000
C      -0.113230000000000    -11.063590000000000     -4.273740000000000
O      -0.905820000000000    -10.527300000000000     -5.318870000000000
C      -0.007750000000000     -8.231350000000001     -5.191180000000000
C      -0.806500000000000    -11.050129999999999     -2.911320000000000
H      -1.849450000000000     -8.881679999999999     -6.046840000000000
H      -1.867250000000000     -8.975890000000000     -4.283050000000000
H       0.066920000000000    -12.129410000000000     -4.531270000000000
H       0.892120000000000    -10.595870000000000     -4.233010000000000
H      -1.797270000000000    -11.546040000000000     -2.983700000000000
H      -0.180850000000000    -11.599010000000000     -2.176680000000000
H      -0.932040000000000    -10.013629999999999     -2.538590000000000
H       0.594970000000000     -8.412699999999999     -6.105840000000000
H      -0.352360000000000     -7.176760000000000     -5.190140000000000
H       0.621930000000000     -8.378959999999999     -4.290780000000000
Na     -3.723230000000000    -12.485849999999999     -9.648820000000001
C      -1.478020000000000    -14.542600000000000     -8.292410000000000
C      -3.279790000000000    -14.125410000000000     -6.858380000000000
O      -2.476680000000000    -13.621250000000000     -7.906140000000000
C      -0.904170000000000    -14.105630000000000     -9.634300000000000
C      -2.593010000000000    -13.994960000000001     -5.500460000000000
H      -0.651420000000000    -14.543910000000000     -7.550000000000000
H      -1.883150000000000    -15.571030000000000     -8.424569999999999
H      -4.204930000000000    -13.510680000000001     -6.829960000000000
H      -3.612310000000000    -15.170249999999999     -7.046550000000000
H      -2.323390000000000    -12.935760000000000     -5.309870000000000
H      -3.285630000000000    -14.335750000000001     -4.702640000000000
H      -1.678160000000000    -14.620460000000000     -5.458510000000000
H      -0.486230000000000    -13.078960000000000     -9.557969999999999
H      -0.095330000000000    -14.800330000000001     -9.943920000000000
H      -1.697750000000000    -14.113379999999999    -10.410340000000000
C      -4.827410000000000    -14.933439999999999    -11.597420000000000
C      -3.926390000000000    -13.255580000000000    -12.913589999999999
O      -4.114710000000000    -13.720240000000000    -11.599090000000000
C      -5.024030000000000    -15.366170000000000    -10.150700000000001
C      -3.127350000000000    -11.960940000000001    -12.848170000000000
H      -5.832860000000000    -14.805780000000000    -12.058430000000000
H      -4.250600000000000    -15.728970000000000    -12.120320000000000
H      -3.343720000000000    -13.989950000000000    -13.514139999999999
H      -4.903860000000000    -13.035090000000000    -13.398860000000001
H      -2.143450000000000    -12.148740000000000    -12.367380000000001
H      -2.958640000000000    -11.563070000000000    -13.870320000000000
H      -3.678860000000000    -11.202320000000000    -12.251450000000000
H      -5.597350000000000    -14.592779999999999     -9.595250000000000
H      -5.578170000000000    -16.326599999999999    -10.109249999999999
H      -4.037740000000000    -15.499950000000000     -9.660060000000000
Mg     -1.588880000000000     -2.016150000000000     -9.811470000000000
C      -3.427220000000000     -1.285290000000000     -7.095520000000000
C      -4.733150000000000     -0.970330000000000     -9.071940000000000
O      -3.451640000000000     -1.165210000000000     -8.508010000000001
C      -4.388170000000000     -2.327020000000000     -6.517220000000000
C      -5.347290000000000      0.373530000000000     -8.698510000000001
H      -2.406220000000000     -1.628360000000000     -6.833840000000000
H      -3.556130000000000     -0.296530000000000     -6.609610000000000
H      -4.603010000000000     -0.977490000000000    -10.171749999999999
H      -5.414410000000000     -1.819380000000000     -8.864580000000000
H      -6.295090000000000      0.506890000000000     -9.260680000000001
H      -4.652670000000000      1.197960000000000     -8.961580000000000
H      -5.571430000000000      0.411470000000000     -7.614120000000000
H      -4.239350000000000     -3.305940000000000     -7.007500000000000
H      -5.442070000000000     -2.003240000000000     -6.633690000000000
H      -4.187920000000000     -2.452540000000000     -5.435500000000000
H      -0.840800000000000      0.499420000000000    -10.428940000000001
C      -1.190360000000000     -0.435930000000000    -12.377010000000000
C      -0.639460000000000     -0.462500000000000    -10.942660000000000
C      -2.721740000000000     -0.296720000000000    -12.480829999999999
H      -0.708140000000000      0.396490000000000    -12.931780000000000
H      -0.913830000000000     -1.392190000000000    -12.870609999999999
H      -2.998100000000000     -0.306980000000000    -13.559010000000001
H      -3.211500000000000     -1.169380000000000    -12.002230000000001
C      -3.268580000000000      0.994650000000000    -11.872430000000000
H       0.454650000000000     -0.637420000000000    -10.962300000000001
H      -3.072780000000000      1.027400000000000    -10.782920000000001
H      -2.807930000000000      1.880500000000000    -12.357070000000000
H      -4.369190000000000      1.040140000000000    -12.025800000000000
C      -4.809750000000000     -4.247520000000000    -10.443800000000000
C      -3.830270000000000     -4.069890000000000    -11.393459999999999
C      -2.608780000000000     -4.232830000000000    -10.765900000000000
C      -2.835920000000000     -4.480320000000000     -9.472189999999999
N      -4.216780000000000     -4.529360000000000     -9.201350000000000
C      -1.767600000000000     -4.645780000000000     -8.424420000000000
N      -0.989950000000000     -3.401910000000000     -8.338710000000001
C       0.217370000000000     -3.367320000000000     -7.477730000000000
H      -3.995890000000000     -3.826820000000000    -12.435020000000000
H      -5.874400000000000     -4.171220000000000    -10.613049999999999
H      -1.636300000000000     -4.132810000000000    -11.228280000000000
H      -1.130490000000000     -5.506390000000000     -8.705579999999999
H      -2.258820000000000     -4.848200000000000     -7.449280000000000
C       1.311370000000000     -4.304490000000000     -8.027340000000001
C       0.764040000000000     -1.930660000000000     -7.453470000000000
C      -0.130040000000000     -3.779910000000000     -6.028000000000000
H       1.587650000000000     -4.015850000000000     -9.062980000000000
H       2.222410000000000     -4.252740000000000     -7.390970000000000
H       0.978790000000000     -5.362550000000000     -8.028400000000000
H       0.010470000000000     -1.228260000000000     -7.039240000000000
H       1.676730000000000     -1.869790000000000     -6.818720000000000
H       1.030660000000000     -1.597500000000000     -8.478280000000000
H      -0.913470000000000     -3.115080000000000     -5.606100000000000
H      -0.495530000000000     -4.825920000000000     -5.980960000000000
H       0.766630000000000     -3.714870000000000     -5.373160000000000

-C 0
6-31g(d,p)
****
-H 0
6-31g(d,p)
****
-Mg 0
6-31g(d,p)
****
-N 0
6-31+g(d,p)
****
-Na 0
6-31g(d,p)
****
-O 0
6-31+g(d,p)
****


