%chk=lowest10_c1_a2_speciation7_speciationDFT1_speciationDFT1_rank07_E220.43.chk
%nprocshared=20
%mem=40GB
#p opt=loose PM7/gen scf=xqc 

lowest10_c1_a2_speciation7_speciationDFT1_speciationDFT1_rank07_E220.43 DFT input

0 1
Mg      0.259670000000000     -0.641650000000000     -0.372380000000000
H      -0.053590000000000     -3.335450000000000      0.901960000000000
C       0.645950000000000     -2.180090000000000      2.629120000000000
C       0.683310000000000     -2.547540000000000      1.159520000000000
C       1.045750000000000     -3.393260000000000      3.459340000000000
H       1.349760000000000     -1.338990000000000      2.812720000000000
H      -0.381780000000000     -1.846630000000000      2.893480000000000
H       0.338490000000000     -4.225890000000000      3.252610000000000
H       2.071630000000000     -3.710870000000000      3.170510000000000
C       1.022580000000000     -3.075980000000000      4.946370000000000
H       1.706990000000000     -2.812260000000000      0.821400000000000
H       1.736820000000000     -2.256710000000000      5.175330000000000
H       0.000570000000000     -2.772460000000000      5.257810000000000
H       1.318920000000000     -3.982230000000000      5.513750000000000
C      -0.836260000000000     -1.447900000000000     -3.238100000000000
C      -1.371100000000000     -0.680380000000000     -4.260380000000000
C      -1.376240000000000      0.632630000000000     -3.816340000000000
C      -0.857210000000000      0.611460000000000     -2.543620000000000
N      -0.531660000000000     -0.645840000000000     -2.207560000000000
C      -0.636870000000000      1.789990000000000     -1.615190000000000
N      -0.239460000000000      1.318610000000000     -0.273390000000000
C      -0.005190000000000      2.273310000000000      0.825210000000000
H      -1.712960000000000     -1.032940000000000     -5.222660000000000
H      -0.677550000000000     -2.519770000000000     -3.256200000000000
H      -1.723140000000000      1.504610000000000     -4.353760000000000
H      -1.582870000000000      2.356560000000000     -1.542130000000000
H       0.161040000000000      2.419200000000000     -2.059990000000000
C      -1.327000000000000      2.977120000000000      1.186250000000000
C       0.490730000000000      1.503400000000000      2.062890000000000
C       1.060380000000000      3.310710000000000      0.428570000000000
H      -2.090220000000000      2.226860000000000      1.489470000000000
H      -1.178460000000000      3.690090000000000      2.024300000000000
H      -1.725710000000000      3.551990000000000      0.326650000000000
H       1.453750000000000      0.992190000000000      1.850210000000000
H       0.650420000000000      2.198960000000000      2.917430000000000
H      -0.252900000000000      0.740070000000000      2.376650000000000
H       2.011350000000000      2.802650000000000      0.158850000000000
H       0.722670000000000      3.918120000000000     -0.435790000000000
H       1.257430000000000      4.008020000000000      1.270970000000000
Na    -11.380610000000001     -7.168000000000000     -5.698580000000000
C     -12.134890000000000     -4.206420000000000     -6.622870000000000
C     -11.425039999999999     -4.009150000000000     -4.395710000000000
O     -12.089160000000000     -4.817780000000000     -5.348180000000000
C     -10.904360000000000     -4.574170000000000     -7.445890000000000
C     -12.403900000000000     -3.079400000000000     -3.683000000000000
H     -13.034070000000000     -4.588390000000000     -7.151210000000000
H     -12.257280000000000     -3.101440000000000     -6.565520000000000
H     -10.968059999999999     -4.683560000000000     -3.640430000000000
H     -10.586810000000000     -3.426040000000000     -4.837620000000000
H     -13.192290000000000     -3.666520000000000     -3.167720000000000
H     -11.857100000000001     -2.480440000000000     -2.924850000000000
H     -12.882730000000000     -2.386420000000000     -4.405030000000000
H     -10.834730000000000     -5.676200000000000     -7.560020000000000
H     -10.981479999999999     -4.114320000000000     -8.452940000000000
H      -9.981230000000000     -4.202390000000000     -6.956570000000000
C      -8.166570000000000     -6.379310000000000     -5.098000000000000
C      -8.474560000000000     -8.739300000000000     -5.238620000000000
O      -9.079639999999999     -7.460930000000000     -5.153630000000000
C      -7.298960000000000     -6.240030000000000     -6.349210000000000
C      -7.636420000000000     -9.100680000000001     -4.012670000000000
H      -8.779000000000000     -5.455850000000000     -5.029690000000000
H      -7.558010000000000     -6.400450000000000     -4.170830000000000
H      -9.304259999999999     -9.476789999999999     -5.288960000000000
H      -7.907170000000000     -8.868750000000000     -6.183410000000000
H      -8.241890000000000     -8.980850000000000     -3.089720000000000
H      -7.306160000000000    -10.157430000000000     -4.093420000000000
H      -6.728670000000000     -8.467240000000000     -3.950850000000000
H      -7.938760000000000     -6.193060000000000     -7.255350000000000
H      -6.706970000000000     -5.304560000000000     -6.279440000000000
H      -6.584930000000000     -7.083580000000000     -6.436300000000000
Na    -14.166309999999999     -5.462530000000000     -4.349960000000000
C     -13.959949999999999     -8.669760000000000     -5.209910000000000
C     -13.075049999999999     -8.267880000000000     -3.080560000000000
O     -13.323960000000000     -7.733410000000000     -4.364820000000000
C     -14.521110000000000     -7.932720000000000     -6.419590000000000
C     -11.839499999999999     -9.165730000000000     -3.065530000000000
H     -13.223179999999999     -9.416890000000000     -5.575060000000000
H     -14.812820000000000     -9.178760000000000     -4.707160000000000
H     -12.877990000000000     -7.410570000000000     -2.401730000000000
H     -13.962809999999999     -8.791820000000000     -2.662420000000000
H     -10.955030000000001     -8.603809999999999     -3.430000000000000
H     -11.642910000000001     -9.504770000000001     -2.026870000000000
H     -11.993700000000000    -10.061299999999999     -3.701230000000000
H     -13.707310000000000     -7.401020000000000     -6.957740000000000
H     -14.998670000000001     -8.654999999999999     -7.114550000000000
H     -15.282040000000000     -7.191690000000000     -6.097130000000000
C     -17.416490000000000     -5.788040000000000     -3.785360000000000
C     -17.083960000000001     -4.295700000000000     -5.524390000000000
O     -16.469510000000000     -5.213050000000000     -4.652620000000000
C     -16.685569999999998     -6.744990000000000     -2.853020000000000
C     -16.013929999999998     -3.735080000000000     -6.451680000000000
H     -17.910440000000001     -5.009170000000000     -3.161600000000000
H     -18.170410000000000     -6.372900000000000     -4.358510000000000
H     -17.853890000000000     -4.799050000000000     -6.151500000000000
H     -17.529060000000001     -3.447880000000000     -4.956460000000000
H     -15.549680000000000     -4.559630000000000     -7.033970000000000
H     -16.462129999999998     -3.004490000000000     -7.156570000000000
H     -15.223480000000000     -3.226460000000000     -5.858130000000000
H     -15.921250000000001     -6.194400000000000     -2.263050000000000
H     -17.403060000000000     -7.225690000000000     -2.156380000000000
H     -16.178030000000000     -7.534120000000000     -3.445510000000000
Mg     -6.541200000000000     -1.318380000000000      0.076710000000000
H      -3.931010000000000     -2.720900000000000     -0.789520000000000
C      -5.010150000000000     -2.649890000000000     -2.689660000000000
C      -4.958590000000000     -2.852100000000000     -1.186780000000000
C      -4.147750000000000     -3.703370000000000     -3.378140000000000
H      -6.064770000000000     -2.735700000000000     -3.031770000000000
H      -4.640300000000000     -1.628740000000000     -2.929370000000000
H      -3.100330000000000     -3.613740000000000     -3.017010000000000
H      -4.531240000000000     -4.715760000000000     -3.123530000000000
C      -4.168820000000000     -3.530430000000000     -4.889190000000000
H      -5.378710000000000     -3.837250000000000     -0.894120000000000
H      -5.205680000000000     -3.631980000000000     -5.271920000000000
H      -3.772950000000000     -2.531280000000000     -5.166890000000000
H      -3.533270000000000     -4.312660000000000     -5.353580000000000
C      -5.701350000000000     -0.806080000000000      3.091080000000000
C      -6.153820000000000      0.104490000000000      4.031770000000000
C      -7.131750000000000      0.870300000000000      3.414760000000000
C      -7.223950000000000      0.405230000000000      2.121540000000000
N      -6.366570000000000     -0.609340000000000      1.942000000000000
C      -8.139530000000001      0.904010000000000      1.017440000000000
N      -7.794070000000000      0.244960000000000     -0.260210000000000
C      -8.514550000000000      0.562650000000000     -1.505810000000000
H      -5.813450000000000      0.198660000000000      5.053920000000000
H      -4.940860000000000     -1.561860000000000      3.241910000000000
H      -7.701880000000000      1.677060000000000      3.854490000000000
H      -8.001110000000001      1.997300000000000      0.917940000000000
H      -9.183630000000001      0.673110000000000      1.311770000000000
C      -8.259280000000000      2.031520000000000     -1.893720000000000
C      -7.976870000000000     -0.339390000000000     -2.631650000000000
C     -10.023300000000001      0.306440000000000     -1.343910000000000
H      -7.168700000000000      2.210800000000000     -2.019110000000000
H      -8.768560000000001      2.281160000000000     -2.848810000000000
H      -8.640549999999999      2.725610000000000     -1.117760000000000
H      -8.149410000000000     -1.410820000000000     -2.394050000000000
H      -8.487780000000001     -0.111820000000000     -3.593900000000000
H      -6.886300000000000     -0.182170000000000     -2.775370000000000
H     -10.206189999999999     -0.752750000000000     -1.061550000000000
H     -10.457739999999999      0.963950000000000     -0.563360000000000
H     -10.557890000000000      0.516190000000000     -2.295350000000000

-C 0
6-31g(d,p)
****
-H 0
6-31g(d,p)
****
-Mg 0
6-31g(d,p)
****
-N 0
6-31+g(d,p)
****
-Na 0
6-31g(d,p)
****
-O 0
6-31+g(d,p)
****


