%chk=lowest10_c1_a2_speciation0_speciationDFT1_speciationDFT1_rank02_E178.40.chk
%nprocshared=20
%mem=40GB
#p opt=loose PM7/gen scf=xqc 

lowest10_c1_a2_speciation0_speciationDFT1_speciationDFT1_rank02_E178.40 DFT input

0 1
Mg     -0.065700000000000     -0.062910000000000      0.774700000000000
H       2.127410000000000      1.559580000000000      2.020520000000000
C       3.297750000000000      0.376330000000000      0.593340000000000
C       2.193200000000000      0.527520000000000      1.619670000000000
C       4.641970000000000      0.636930000000000      1.261270000000000
H       3.268660000000000     -0.653690000000000      0.175400000000000
H       3.125420000000000      1.099640000000000     -0.233940000000000
H       4.646550000000000      1.665770000000000      1.682820000000000
H       4.785920000000000     -0.092640000000000      2.088140000000000
C       5.786640000000000      0.498510000000000      0.269760000000000
H       2.271100000000000     -0.226530000000000      2.430630000000000
H       5.808810000000000     -0.529650000000000     -0.149960000000000
H       5.669380000000000      1.231840000000000     -0.556130000000000
H       6.744500000000000      0.695100000000000      0.794050000000000
C      -2.472020000000000      1.290740000000000      2.336310000000000
C      -3.822880000000000      1.372700000000000      2.039240000000000
C      -4.009860000000000      0.717510000000000      0.832130000000000
C      -2.768700000000000      0.277120000000000      0.436920000000000
N      -1.851550000000000      0.623790000000000      1.352120000000000
C      -2.419540000000000     -0.501900000000000     -0.816290000000000
N      -0.953710000000000     -0.608240000000000     -0.961950000000000
C      -0.356600000000000     -1.287640000000000     -2.126060000000000
H      -4.586550000000000      1.851370000000000      2.634550000000000
H      -1.982970000000000      1.691340000000000      3.216510000000000
H      -4.939800000000000      0.583660000000000      0.296700000000000
H      -2.838110000000000      0.035120000000000     -1.686850000000000
H      -2.877130000000000     -1.507740000000000     -0.720790000000000
C      -0.679050000000000     -0.494500000000000     -3.406740000000000
C       1.172800000000000     -1.331450000000000     -1.952880000000000
C      -0.882680000000000     -2.729100000000000     -2.244530000000000
H      -0.282160000000000      0.541520000000000     -3.326100000000000
H      -0.224680000000000     -0.979250000000000     -4.296330000000000
H      -1.772020000000000     -0.436260000000000     -3.580870000000000
H       1.451210000000000     -1.909700000000000     -1.046260000000000
H       1.651770000000000     -1.817090000000000     -2.832850000000000
H       1.588940000000000     -0.305640000000000     -1.859360000000000
H      -0.658850000000000     -3.298500000000000     -1.316650000000000
H      -1.978660000000000     -2.740260000000000     -2.414290000000000
H      -0.405600000000000     -3.248040000000000     -3.103430000000000
Na    -17.106520000000000     -1.062740000000000      4.841900000000000
C     -14.824610000000000     -2.648240000000000      3.100340000000000
C     -13.872460000000000     -1.642080000000000      4.940490000000000
O     -14.710530000000000     -1.441060000000000      3.822650000000000
C     -15.717890000000001     -2.422870000000000      1.888980000000000
C     -13.765890000000001     -0.341410000000000      5.723770000000000
H     -13.829980000000001     -2.982390000000000      2.729780000000000
H     -15.293780000000000     -3.440830000000000      3.726610000000000
H     -14.299180000000000     -2.413570000000000      5.621490000000000
H     -12.845950000000000     -1.930400000000000      4.617730000000000
H     -14.770799999999999     -0.022620000000000      6.073880000000000
H     -13.108400000000000     -0.487760000000000      6.606870000000000
H     -13.334210000000001      0.456530000000000      5.082930000000000
H     -15.279480000000000     -1.643240000000000      1.230380000000000
H     -15.813450000000000     -3.367390000000000      1.312440000000000
H     -16.728690000000000     -2.097380000000000      2.214750000000000
Na    -13.267890000000000      0.103940000000000      2.247250000000000
Mg     -7.192510000000000     -2.605080000000000      2.608220000000000
H      -4.144320000000000     -2.975750000000000      2.266980000000000
C      -4.881490000000000     -4.885320000000000      1.496660000000000
C      -4.919970000000000     -3.737570000000000      2.488770000000000
C      -3.537640000000000     -5.601890000000000      1.592980000000000
H      -5.709270000000000     -5.591520000000000      1.725840000000000
H      -5.032970000000000     -4.481450000000000      0.471690000000000
H      -2.720490000000000     -4.880830000000000      1.372390000000000
H      -3.403690000000000     -5.993860000000000      2.625070000000000
C      -3.457370000000000     -6.759460000000000      0.608590000000000
H      -4.837070000000000     -4.101340000000000      3.534460000000000
H      -4.254670000000000     -7.502610000000000      0.822970000000000
H      -3.570340000000000     -6.386930000000000     -0.431670000000000
H      -2.468660000000000     -7.253420000000000      0.708840000000000
C      -7.082510000000000      0.380960000000000      3.665880000000000
C      -8.030550000000000      1.390630000000000      3.677650000000000
C      -9.175160000000000      0.877030000000000      3.086120000000000
C      -8.871729999999999     -0.417000000000000      2.724670000000000
N      -7.614540000000000     -0.706730000000000      3.086840000000000
C      -9.773190000000000     -1.424400000000000      2.033220000000000
N      -8.996829999999999     -2.630710000000000      1.674770000000000
C      -9.623030000000000     -3.763750000000000      0.971230000000000
H      -7.905210000000000      2.388080000000000      4.076400000000000
H      -6.075770000000000      0.439220000000000      4.058720000000000
H     -10.114580000000000      1.389070000000000      2.929920000000000
H     -10.175870000000000     -0.958390000000000      1.114100000000000
H     -10.598290000000000     -1.676620000000000      2.730500000000000
C     -10.072500000000000     -3.319110000000000     -0.433350000000000
C      -8.581140000000000     -4.886570000000000      0.817080000000000
C     -10.821529999999999     -4.305180000000000      1.769300000000000
H      -9.202220000000001     -2.936610000000000     -1.010820000000000
H     -10.518549999999999     -4.169460000000000     -0.991780000000000
H     -10.835129999999999     -2.516310000000000     -0.377150000000000
H      -8.235760000000001     -5.242370000000000      1.811180000000000
H      -9.016810000000000     -5.753210000000000      0.271320000000000
H      -7.697920000000000     -4.528800000000000      0.245610000000000
H     -10.497990000000000     -4.622160000000000      2.784080000000000
H     -11.609950000000000     -3.533140000000000      1.871250000000000
H     -11.271870000000000     -5.179120000000000      1.251310000000000

-C 0
6-31g(d,p)
****
-H 0
6-31g(d,p)
****
-Mg 0
6-31g(d,p)
****
-N 0
6-31+g(d,p)
****
-Na 0
6-31g(d,p)
****
-O 0
6-31+g(d,p)
****


