%chk=lowest10_c1_a2_speciation7_speciationDFT1_speciationDFT36_rank03_E222.62.chk
%nprocshared=20
%mem=40GB
#p opt=loose PM7/gen scf=xqc 

lowest10_c1_a2_speciation7_speciationDFT1_speciationDFT36_rank03_E222.62 DFT input

0 1
Mg      0.791170000000000      0.148160000000000      0.019670000000000
C      -2.636200000000000     -0.374750000000000     -1.433840000000000
C      -1.507140000000000     -2.384320000000000     -1.508230000000000
O      -1.387050000000000     -0.987590000000000     -1.688390000000000
C      -2.648900000000000      1.025810000000000     -2.027850000000000
C      -0.146980000000000     -3.044190000000000     -1.691450000000000
H      -3.477130000000000     -0.929770000000000     -1.906400000000000
H      -2.812000000000000     -0.301030000000000     -0.340830000000000
H      -1.882300000000000     -2.628690000000000     -0.492160000000000
H      -2.195800000000000     -2.815700000000000     -2.263930000000000
H       0.575760000000000     -2.667920000000000     -0.939580000000000
H      -0.245130000000000     -4.143580000000000     -1.568660000000000
H       0.244240000000000     -2.829540000000000     -2.707690000000000
H      -2.473400000000000      0.981450000000000     -3.121710000000000
H      -3.625550000000000      1.512490000000000     -1.825890000000000
H      -1.860670000000000      1.647800000000000     -1.580760000000000
H       2.263550000000000     -1.295700000000000     -2.409630000000000
C       3.558960000000000     -0.723230000000000     -0.719890000000000
C       2.450930000000000     -0.443400000000000     -1.728070000000000
C       3.247000000000000     -1.954510000000000      0.141960000000000
H       4.497850000000000     -0.885040000000000     -1.286670000000000
H       3.680650000000000      0.162010000000000     -0.056270000000000
H       2.339580000000000     -1.773640000000000      0.759950000000000
H       3.061520000000000     -2.833240000000000     -0.511710000000000
C       4.419620000000000     -2.280150000000000      1.064320000000000
H       2.641100000000000      0.492240000000000     -2.292290000000000
H       5.329860000000000     -2.483480000000000      0.460310000000000
H       4.622530000000000     -1.433550000000000      1.754110000000000
H       4.188230000000000     -3.184260000000000      1.666350000000000
C      -0.672830000000000     -2.097320000000000      1.699950000000000
C      -1.745960000000000     -2.024150000000000      2.570410000000000
C      -2.115460000000000     -0.688650000000000      2.637620000000000
C      -1.265800000000000     -0.007820000000000      1.796670000000000
N      -0.410300000000000     -0.870550000000000      1.231680000000000
C      -1.214180000000000      1.484440000000000      1.519670000000000
N      -0.380320000000000      1.774000000000000      0.329880000000000
C       0.122100000000000      3.146090000000000      0.115320000000000
H      -2.203730000000000     -2.849230000000000      3.096200000000000
H      -0.134060000000000     -2.995410000000000      1.418200000000000
H      -2.917800000000000     -0.262290000000000      3.223410000000000
H      -2.239560000000000      1.858830000000000      1.326520000000000
H      -0.802640000000000      1.962420000000000      2.429880000000000
C       1.229530000000000      3.493980000000000      1.125870000000000
C       0.717030000000000      3.235190000000000     -1.305170000000000
C      -1.037920000000000      4.156020000000000      0.221620000000000
H       2.089940000000000      2.799260000000000      1.015330000000000
H       1.593150000000000      4.530660000000000      0.952180000000000
H       0.862200000000000      3.439860000000000      2.169050000000000
H      -0.045080000000000      3.004630000000000     -2.078710000000000
H       1.104900000000000      4.258330000000000     -1.507060000000000
H       1.557350000000000      2.520010000000000     -1.424740000000000
H      -1.841840000000000      3.893530000000000     -0.500330000000000
H      -1.471340000000000      4.155740000000000      1.243060000000000
H      -0.688900000000000      5.186330000000000     -0.000990000000000
Na    -11.850500000000000     -8.861580000000000     -2.834840000000000
C     -12.605200000000000     -5.900800000000000     -3.760450000000000
C     -11.895360000000000     -5.703590000000000     -1.533260000000000
O     -12.559550000000000     -6.512140000000000     -2.485750000000000
C     -11.374570000000000     -6.268430000000000     -4.583390000000000
C     -12.874110000000000     -4.773690000000000     -0.820590000000000
H     -13.504280000000000     -6.282860000000000     -4.288880000000000
H     -12.727710000000000     -4.795850000000000     -3.703080000000000
H     -11.438499999999999     -6.378050000000000     -0.777940000000000
H     -11.057060000000000     -5.120610000000000     -1.975160000000000
H     -13.662520000000001     -5.360700000000000     -0.305180000000000
H     -12.327180000000000     -4.174670000000000     -0.062570000000000
H     -13.352950000000000     -4.080750000000000     -1.542650000000000
H     -11.304900000000000     -7.370440000000000     -4.697660000000000
H     -11.451620000000000     -5.808440000000000     -5.590380000000000
H     -10.451480000000000     -5.896690000000000     -4.093960000000000
C      -8.636889999999999     -8.073510000000001     -2.235620000000000
C      -8.944850000000001    -10.433529999999999     -2.376280000000000
O      -9.549899999999999     -9.155170000000000     -2.291340000000000
C      -7.769120000000000     -7.934240000000000     -3.486710000000000
C      -8.106629999999999    -10.794840000000001     -1.150370000000000
H      -9.249370000000001     -7.150090000000000     -2.167420000000000
H      -8.028460000000001     -8.094609999999999     -1.308350000000000
H      -9.774590000000000    -11.170999999999999     -2.426470000000000
H      -8.377549999999999    -10.563060000000000     -3.321120000000000
H      -8.711990000000000    -10.674799999999999     -0.227380000000000
H      -7.776510000000000    -11.851640000000000     -1.231010000000000
H      -7.198820000000000    -10.161479999999999     -1.088770000000000
H      -8.408799999999999     -7.887390000000000     -4.392940000000000
H      -7.177240000000000     -6.998710000000000     -3.416920000000000
H      -7.055030000000000     -8.777749999999999     -3.573630000000000
Na    -14.636620000000001     -7.156990000000000     -1.488480000000000
C     -14.430070000000001    -10.363860000000001     -2.347560000000000
C     -13.545050000000000     -9.961900000000000     -0.218230000000000
O     -13.793990000000001     -9.427510000000000     -1.502520000000000
C     -14.991270000000000     -9.626830000000000     -3.557240000000000
C     -12.309609999999999    -10.859909999999999     -0.203140000000000
H     -13.693330000000000    -11.111010000000000     -2.712720000000000
H     -15.282920000000001    -10.872830000000000     -1.844750000000000
H     -13.347810000000001     -9.104530000000000      0.460490000000000
H     -14.432860000000000    -10.485659999999999      0.200000000000000
H     -11.425030000000000    -10.298150000000000     -0.567580000000000
H     -12.113099999999999    -11.198919999999999      0.835550000000000
H     -12.463900000000001    -11.755500000000000     -0.838790000000000
H     -14.177510000000000     -9.095000000000001     -4.095340000000000
H     -15.468710000000000    -10.349130000000001     -4.252260000000000
H     -15.752310000000000     -8.885910000000001     -3.234810000000000
C     -17.886510000000001     -7.482280000000000     -0.922910000000000
C     -17.553989999999999     -5.989900000000000     -2.661970000000000
O     -16.939570000000000     -6.907200000000000     -1.790150000000000
C     -17.155490000000000     -8.439220000000001      0.009360000000000
C     -16.483899999999998     -5.429330000000000     -3.589240000000000
H     -18.380500000000001     -6.703460000000000     -0.299120000000000
H     -18.640400000000000     -8.067150000000000     -1.496080000000000
H     -18.323889999999999     -6.493270000000000     -3.289100000000000
H     -17.999099999999999     -5.142050000000000     -2.094090000000000
H     -16.019629999999999     -6.253930000000000     -4.171470000000000
H     -16.932009999999998     -4.698750000000000     -4.294190000000000
H     -15.693450000000000     -4.920730000000000     -2.995670000000000
H     -16.391200000000001     -7.888610000000000      0.599360000000000
H     -17.872900000000001     -8.920050000000000      0.706000000000000
H     -16.647880000000001     -9.228260000000001     -0.583180000000000
Mg     -7.010810000000000     -3.012410000000000      2.938930000000000
H      -4.401370000000000     -4.413410000000000      2.073390000000000
C      -5.479920000000000     -4.342720000000000      0.172710000000000
C      -5.428630000000000     -4.545050000000000      1.675590000000000
C      -4.616600000000000     -5.395620000000000     -0.515630000000000
H      -6.534490000000000     -4.429330000000000     -0.169450000000000
H      -5.110710000000000     -3.321310000000000     -0.067010000000000
H      -3.568600000000000     -5.304200000000000     -0.155370000000000
H      -4.999430000000000     -6.408280000000000     -0.260480000000000
C      -4.638850000000000     -5.223700000000000     -2.026780000000000
H      -5.848820000000000     -5.530250000000000      1.968190000000000
H      -5.675840000000000     -5.326130000000000     -2.408940000000000
H      -4.244000000000000     -4.224420000000000     -2.305140000000000
H      -4.003160000000000     -6.005940000000000     -2.491030000000000
C      -6.171330000000000     -2.500260000000000      5.953360000000000
C      -6.624070000000000     -1.589770000000000      6.893990000000000
C      -7.602000000000000     -0.824060000000000      6.276900000000000
C      -7.693930000000000     -1.289180000000000      4.983670000000000
N      -6.836440000000000     -2.303530000000000      4.804150000000000
C      -8.609550000000000     -0.790530000000000      3.879580000000000
N      -8.263780000000001     -1.449330000000000      2.601900000000000
C      -8.984310000000001     -1.131560000000000      1.356350000000000
H      -6.283870000000000     -1.495570000000000      7.916210000000000
H      -5.410840000000000     -3.255970000000000      6.104220000000000
H      -8.172280000000001     -0.017400000000000      6.716540000000000
H      -8.471489999999999      0.302780000000000      3.780240000000000
H      -9.653560000000001     -1.021900000000000      4.173880000000000
C      -8.728920000000000      0.337310000000000      0.968590000000000
C      -8.446740000000000     -2.033480000000000      0.230370000000000
C     -10.493090000000000     -1.387730000000000      1.518370000000000
H      -7.638310000000000      0.516470000000000      0.843040000000000
H      -9.238379999999999      0.587130000000000      0.013650000000000
H      -9.110020000000000      1.031320000000000      1.744700000000000
H      -8.619400000000001     -3.104930000000000      0.467810000000000
H      -8.957739999999999     -1.805720000000000     -0.731790000000000
H      -7.356160000000000     -1.876290000000000      0.086560000000000
H     -10.676040000000000     -2.446920000000000      1.800690000000000
H     -10.927479999999999     -0.730280000000000      2.299000000000000
H     -11.027799999999999     -1.177890000000000      0.567020000000000

-C 0
6-31g(d,p)
****
-H 0
6-31g(d,p)
****
-Mg 0
6-31g(d,p)
****
-N 0
6-31+g(d,p)
****
-Na 0
6-31g(d,p)
****
-O 0
6-31+g(d,p)
****


