%chk=lowest10_c1_a2_speciation0_speciationDFT0_speciationDFT0_rank07_E179.19.chk
%nprocshared=20
%mem=40GB
#p opt=loose PM7/gen scf=xqc 

lowest10_c1_a2_speciation0_speciationDFT0_speciationDFT0_rank07_E179.19 DFT input

0 1
Mg      0.530860000000000      0.948020000000000     -0.094810000000000
H       0.827720000000000      2.531700000000000     -2.682500000000000
C       1.150480000000000      0.507630000000000     -3.480710000000000
C       1.290540000000000      1.565140000000000     -2.401550000000000
C      -0.306240000000000      0.232820000000000     -3.883270000000000
H       1.706570000000000      0.863230000000000     -4.372320000000000
H       1.619390000000000     -0.436800000000000     -3.130440000000000
H      -0.786790000000000      1.164260000000000     -4.254360000000000
H      -0.276380000000000     -0.500470000000000     -4.715650000000000
C      -1.162900000000000     -0.367380000000000     -2.764600000000000
H       2.358540000000000      1.706370000000000     -2.124560000000000
H      -1.352810000000000      0.374940000000000     -1.963400000000000
H      -2.143780000000000     -0.676920000000000     -3.187790000000000
H      -0.675360000000000     -1.265900000000000     -2.329830000000000
C      -2.408320000000000      1.933090000000000      0.604020000000000
C      -3.315650000000000      1.498280000000000      1.557490000000000
C      -2.713270000000000      0.450630000000000      2.236710000000000
C      -1.475930000000000      0.280090000000000      1.662080000000000
N      -1.299680000000000      1.183540000000000      0.685830000000000
C      -0.411660000000000     -0.731760000000000      2.035000000000000
N       0.644580000000000     -0.756490000000000      1.003300000000000
C       1.760430000000000     -1.715970000000000      1.091780000000000
H      -4.301500000000000      1.900540000000000      1.742490000000000
H      -2.553960000000000      2.747420000000000     -0.095990000000000
H      -3.130130000000000     -0.128970000000000      3.049330000000000
H       0.005400000000000     -0.433010000000000      3.019250000000000
H      -0.885490000000000     -1.727470000000000      2.102870000000000
C       1.218270000000000     -3.150220000000000      0.932860000000000
C       2.747390000000000     -1.439310000000000     -0.056970000000000
C       2.503540000000000     -1.574930000000000      2.432150000000000
H       0.694360000000000     -3.254980000000000     -0.042930000000000
H       2.043290000000000     -3.892110000000000      0.973290000000000
H       0.503900000000000     -3.406190000000000      1.740630000000000
H       3.176950000000000     -0.418140000000000      0.026480000000000
H       3.585600000000000     -2.171620000000000     -0.037040000000000
H       2.239120000000000     -1.526170000000000     -1.040270000000000
H       2.893340000000000     -0.541530000000000      2.551930000000000
H       1.831220000000000     -1.803160000000000      3.283880000000000
H       3.358050000000000     -2.284220000000000      2.479440000000000
Na     -0.227480000000000     -1.579840000000000     10.217150000000000
C      -2.321570000000000     -0.820380000000000     12.591519999999999
C      -2.925310000000000     -2.808470000000000     11.595870000000000
O      -2.566460000000000     -1.463890000000000     11.359180000000000
C      -1.941450000000000      0.630410000000000     12.330539999999999
C      -3.174410000000000     -3.500790000000000     10.263330000000000
H      -3.235980000000000     -0.822260000000000     13.227670000000000
H      -1.472380000000000     -1.302810000000000     13.127030000000000
H      -2.102390000000000     -3.353740000000000     12.111990000000000
H      -3.865650000000000     -2.866280000000000     12.190260000000000
H      -2.254250000000000     -3.476790000000000      9.641439999999999
H      -3.461130000000000     -4.559460000000000     10.438340000000000
H      -3.996970000000000     -2.991880000000000      9.716860000000000
H      -2.768280000000000      1.154090000000000     11.805249999999999
H      -1.745470000000000      1.146390000000000     13.294449999999999
H      -1.024970000000000      0.679190000000000     11.704879999999999
Na     -4.803430000000000     -0.356020000000000     10.509460000000001
Mg      0.788830000000000     -5.296600000000000      6.851050000000000
H      -0.156210000000000     -7.342420000000000      4.642440000000000
C       2.008820000000000     -7.435090000000000      4.318520000000000
C       0.738130000000000     -6.688550000000000      4.689440000000000
C       2.280610000000000     -8.641679999999999      5.227950000000000
H       1.902210000000000     -7.789480000000000      3.272110000000000
H       2.871270000000000     -6.736650000000000      4.365160000000000
H       1.428430000000000     -9.354240000000001      5.182060000000000
H       3.186210000000000     -9.154900000000000      4.841230000000000
C       2.543920000000000     -8.258070000000000      6.685730000000000
H       0.600590000000000     -5.805000000000000      4.029250000000000
H       1.638030000000000     -7.819810000000000      7.150870000000000
H       2.822490000000000     -9.169420000000001      7.257830000000000
H       3.382300000000000     -7.532300000000000      6.754420000000000
C      -0.508480000000000     -6.810440000000000      9.325460000000000
C      -0.351960000000000     -6.643780000000000     10.691860000000000
C       0.566350000000000     -5.620500000000000     10.871589999999999
C       0.945840000000000     -5.221600000000000      9.609159999999999
N       0.281620000000000     -5.932430000000000      8.687569999999999
C       1.945150000000000     -4.143280000000000      9.235810000000001
N       2.237470000000000     -4.215340000000000      7.788540000000000
C       3.215290000000000     -3.305750000000000      7.165460000000000
H      -0.852120000000000     -7.202190000000000     11.471330000000000
H      -1.158780000000000     -7.523530000000000      8.835350000000000
H       0.925750000000000     -5.224420000000000     11.811460000000000
H       1.506940000000000     -3.161990000000000      9.506910000000000
H       2.875720000000000     -4.317340000000000      9.807620000000000
C       4.620540000000000     -3.587960000000000      7.732480000000000
C       3.239640000000000     -3.575830000000000      5.650460000000000
C       2.830100000000000     -1.835110000000000      7.404310000000000
H       4.899230000000000     -4.650020000000000      7.554010000000000
H       5.380050000000000     -2.939080000000000      7.246820000000000
H       4.663840000000000     -3.394550000000000      8.823320000000001
H       2.243430000000000     -3.381100000000000      5.199930000000000
H       3.985150000000000     -2.920460000000000      5.147080000000000
H       3.514760000000000     -4.631770000000000      5.444810000000000
H       1.817910000000000     -1.628980000000000      6.995370000000000
H       2.834360000000000     -1.592840000000000      8.486980000000001
H       3.557930000000000     -1.158040000000000      6.906920000000000

-C 0
6-31g(d,p)
****
-H 0
6-31g(d,p)
****
-Mg 0
6-31g(d,p)
****
-N 0
6-31+g(d,p)
****
-Na 0
6-31g(d,p)
****
-O 0
6-31+g(d,p)
****


