%chk=lowest10_c1_a2_speciation7_speciationDFT38_speciationDFT38_rank05_E221.76.chk
%nprocshared=20
%mem=40GB
#p opt=loose PM7/gen scf=xqc 

lowest10_c1_a2_speciation7_speciationDFT38_speciationDFT38_rank05_E221.76 DFT input

0 1
Mg     -0.787510000000000     -0.573760000000000     -0.020380000000000
C       1.427800000000000      0.988620000000000      1.856690000000000
C       2.431010000000000     -0.917410000000000      0.813220000000000
O       1.246900000000000     -0.235430000000000      1.166270000000000
C       2.430340000000000      1.957150000000000      1.225020000000000
C       3.175340000000000     -1.454640000000000      2.025880000000000
H       0.445860000000000      1.500450000000000      1.827940000000000
H       1.655060000000000      0.808580000000000      2.926810000000000
H       2.126400000000000     -1.786870000000000      0.199800000000000
H       3.079620000000000     -0.317600000000000      0.144790000000000
H       4.022410000000000     -2.083230000000000      1.681410000000000
H       2.494440000000000     -2.071510000000000      2.648170000000000
H       3.571730000000000     -0.617620000000000      2.633120000000000
H       2.199440000000000      2.116910000000000      0.158680000000000
H       3.466210000000000      1.576720000000000      1.329990000000000
H       2.365870000000000      2.938750000000000      1.735610000000000
H      -1.461110000000000     -2.477100000000000      1.723720000000000
C      -1.464300000000000     -3.542940000000000     -0.193340000000000
C      -1.785430000000000     -2.315260000000000      0.676080000000000
C       0.034030000000000     -3.876720000000000     -0.336450000000000
H      -1.992050000000000     -4.420850000000000      0.233760000000000
H      -1.857770000000000     -3.358700000000000     -1.215970000000000
H       0.130180000000000     -4.779370000000000     -0.981370000000000
H       0.556060000000000     -3.045680000000000     -0.852080000000000
C       0.728440000000000     -4.175990000000000      0.992100000000000
H      -2.872640000000000     -2.108110000000000      0.656670000000000
H       0.702910000000000     -3.288210000000000      1.652750000000000
H       0.239190000000000     -5.029400000000000      1.505460000000000
H       1.793780000000000     -4.436550000000000      0.806870000000000
C       2.168820000000000     -0.104060000000000     -2.581010000000000
C       1.069350000000000     -0.884890000000000     -2.846240000000000
C      -0.054020000000000     -0.168540000000000     -2.470220000000000
C       0.355420000000000      1.003470000000000     -1.965420000000000
N       1.753000000000000      1.121260000000000     -2.033630000000000
C      -0.539900000000000      2.052860000000000     -1.355400000000000
N      -1.247820000000000      1.469540000000000     -0.210850000000000
C      -2.302510000000000      2.265270000000000      0.464950000000000
H       1.093530000000000     -1.887930000000000     -3.252230000000000
H       3.199350000000000     -0.380700000000000     -2.744950000000000
H      -1.075800000000000     -0.516840000000000     -2.521980000000000
H      -1.243500000000000      2.414440000000000     -2.127690000000000
H       0.098740000000000      2.893060000000000     -1.007700000000000
C      -3.507120000000000      2.479670000000000     -0.472160000000000
C      -2.776000000000000      1.500180000000000      1.711390000000000
C      -1.752530000000000      3.640090000000000      0.915500000000000
H      -3.935180000000000      1.504350000000000     -0.784100000000000
H      -4.299610000000000      3.068230000000000      0.040640000000000
H      -3.220860000000000      3.049120000000000     -1.379220000000000
H      -1.941170000000000      1.358480000000000      2.429690000000000
H      -3.586450000000000      2.059780000000000      2.231040000000000
H      -3.169550000000000      0.501740000000000      1.427630000000000
H      -0.883440000000000      3.514210000000000      1.595760000000000
H      -1.432910000000000      4.254740000000000      0.048460000000000
H      -2.532000000000000      4.218710000000000      1.458780000000000
Na     -0.867420000000000    -10.978149999999999     -7.503810000000000
C      -1.603620000000000     -9.072780000000000     -9.964250000000000
C      -3.438930000000000     -8.940429999999999     -8.510339999999999
O      -2.411440000000000     -9.762440000000000     -9.030250000000001
C      -0.437260000000000     -8.381000000000000     -9.265800000000000
C      -4.703920000000000     -9.036799999999999     -9.359360000000001
H      -1.191460000000000     -9.820860000000000    -10.674270000000000
H      -2.181590000000000     -8.348190000000001    -10.581009999999999
H      -3.674570000000000     -9.301690000000001     -7.486580000000000
H      -3.124790000000000     -7.878580000000000     -8.399609999999999
H      -5.066850000000000    -10.084809999999999     -9.398870000000001
H      -5.498310000000000     -8.405740000000000     -8.909160000000000
H      -4.510720000000000     -8.681390000000000    -10.392410000000000
H       0.173900000000000     -9.125510000000000     -8.713870000000000
H       0.203540000000000     -7.881440000000000    -10.021580000000000
H      -0.806300000000000     -7.615810000000000     -8.552849999999999
C      -0.988770000000000     -8.453830000000000     -5.271360000000000
C       0.123940000000000    -10.362100000000000     -4.375190000000000
O      -0.668630000000000     -9.825749999999999     -5.420300000000000
C       0.229360000000000     -7.529760000000000     -5.292370000000000
C      -0.569310000000000    -10.348580000000000     -3.012760000000000
H      -1.612240000000000     -8.180140000000000     -6.148250000000000
H      -1.630180000000000     -8.274430000000001     -4.384450000000000
H       0.304000000000000    -11.427940000000000     -4.632730000000000
H       1.129310000000000     -9.894450000000001     -4.334500000000000
H      -1.560110000000000    -10.844429999999999     -3.085150000000000
H       0.056300000000000    -10.897539999999999     -2.278150000000000
H      -0.694760000000000     -9.312049999999999     -2.640020000000000
H       0.832140000000000     -7.711110000000000     -6.207000000000000
H      -0.115270000000000     -6.475180000000000     -5.291310000000000
H       0.858960000000000     -7.677390000000000     -4.391910000000000
Na     -3.485840000000000    -11.784509999999999     -9.750450000000001
C      -1.240860000000000    -13.841189999999999     -8.393929999999999
C      -3.042630000000000    -13.423970000000001     -6.959900000000000
O      -2.239500000000000    -12.919820000000000     -8.007660000000000
C      -0.667010000000000    -13.404240000000000     -9.735840000000000
C      -2.355850000000000    -13.293570000000001     -5.601970000000000
H      -0.414260000000000    -13.842520000000000     -7.651530000000000
H      -1.646010000000000    -14.869619999999999     -8.526090000000000
H      -3.967750000000000    -12.809189999999999     -6.931470000000000
H      -3.375200000000000    -14.468790000000000     -7.148100000000000
H      -2.086200000000000    -12.234389999999999     -5.411340000000000
H      -3.048480000000000    -13.634370000000001     -4.804170000000000
H      -1.441020000000000    -13.919100000000000     -5.560040000000000
H      -0.249100000000000    -12.377560000000001     -9.659520000000001
H       0.141850000000000    -14.098920000000000    -10.045439999999999
H      -1.460590000000000    -13.412020000000000    -10.511889999999999
C      -4.590250000000000    -14.232060000000001    -11.698910000000000
C      -3.689240000000000    -12.554190000000000    -13.015090000000001
O      -3.877580000000000    -13.018840000000001    -11.700590000000000
C      -4.786850000000000    -14.664759999999999    -10.252179999999999
C      -2.890180000000000    -11.259550000000001    -12.949640000000000
H      -5.595710000000000    -14.104410000000000    -12.159910000000000
H      -4.013430000000000    -15.027590000000000    -12.221800000000000
H      -3.106550000000000    -13.288560000000000    -13.615629999999999
H      -4.666690000000000    -12.333690000000001    -13.500370000000000
H      -1.906300000000000    -11.447360000000000    -12.468840000000000
H      -2.721460000000000    -10.861660000000001    -13.971780000000001
H      -3.441700000000000    -10.500930000000000    -12.352919999999999
H      -5.360180000000000    -13.891370000000000     -9.696730000000001
H      -5.340970000000000    -15.625209999999999    -10.210690000000000
H      -3.800560000000000    -14.798510000000000     -9.761540000000000
Mg     -1.351410000000000     -1.315020000000000     -9.913390000000000
C      -3.189290000000000     -0.583790000000000     -7.197850000000000
C      -4.496090000000000     -0.269460000000000     -9.173900000000000
O      -3.214520000000000     -0.465310000000000     -8.610440000000001
C      -4.149960000000000     -1.624510000000000     -6.616840000000000
C      -5.109870000000000      1.074650000000000     -8.800360000000000
H      -2.168200000000000     -0.926650000000000     -6.936220000000000
H      -3.317980000000000      0.405610000000000     -6.713380000000000
H      -4.366150000000000     -0.276380000000000    -10.273720000000001
H      -5.177500000000000     -1.118300000000000     -8.966390000000001
H      -6.057690000000000      1.208220000000000     -9.362470000000000
H      -4.415220000000000      1.899080000000000     -9.063390000000000
H      -5.334090000000000      1.112670000000000     -7.716020000000000
H      -4.000850000000000     -2.604500000000000     -7.105600000000000
H      -5.203980000000000     -1.301830000000000     -6.735670000000000
H      -3.950430000000000     -1.745040000000000     -5.532870000000000
H      -0.603770000000000      1.200750000000000    -10.530440000000000
C      -0.953300000000000      0.265450000000000    -12.478590000000001
C      -0.402370000000000      0.238890000000000    -11.044240000000000
C      -2.484680000000000      0.404680000000000    -12.582430000000000
H      -0.471080000000000      1.097880000000000    -13.033329999999999
H      -0.676780000000000     -0.690800000000000    -12.972189999999999
H      -2.761010000000000      0.394480000000000    -13.660620000000000
H      -2.974470000000000     -0.468000000000000    -12.103899999999999
C      -3.031520000000000      1.696020000000000    -11.973979999999999
H       0.691740000000000      0.063960000000000    -11.063870000000000
H      -2.835730000000000      1.728710000000000    -10.884470000000000
H      -2.570850000000000      2.581890000000000    -12.458560000000000
H      -4.132130000000000      1.741540000000000    -12.127359999999999
C      -4.572370000000000     -3.546110000000000    -10.544850000000000
C      -3.593020000000000     -3.368330000000000    -11.495270000000000
C      -2.372150000000000     -3.531450000000000    -10.867080000000000
C      -2.597930000000000     -3.778740000000000     -9.573900000000000
N      -3.980250000000000     -3.827750000000000     -9.302940000000000
C      -1.530840000000000     -3.944430000000000     -8.525910000000000
N      -0.752870000000000     -2.700160000000000     -8.440000000000000
C       0.454340000000000     -2.666110000000000     -7.579380000000000
H      -3.758740000000000     -3.125340000000000    -12.536440000000001
H      -5.637310000000000     -3.469700000000000    -10.714560000000001
H      -1.399040000000000     -3.431360000000000    -11.329829999999999
H      -0.893320000000000     -4.804840000000000     -8.807110000000000
H      -2.021720000000000     -4.146780000000000     -7.550860000000000
C       1.548430000000000     -3.603150000000000     -8.129130000000000
C       1.001290000000000     -1.229450000000000     -7.554210000000000
C       0.107530000000000     -3.079410000000000     -6.130030000000000
H       1.824790000000000     -3.314350000000000     -9.164669999999999
H       2.459400000000000     -3.551490000000000     -7.492660000000000
H       1.215860000000000     -4.661230000000000     -8.130200000000000
H       0.247760000000000     -0.527170000000000     -7.139740000000000
H       1.913790000000000     -1.168890000000000     -6.919160000000000
H       1.268010000000000     -0.895930000000000     -8.578900000000001
H      -0.673920000000000     -2.413470000000000     -5.705950000000000
H      -0.259250000000000     -4.124890000000000     -6.082960000000000
H       1.005960000000000     -3.017310000000000     -5.478340000000000

-C 0
6-31g(d,p)
****
-H 0
6-31g(d,p)
****
-Mg 0
6-31g(d,p)
****
-N 0
6-31+g(d,p)
****
-Na 0
6-31g(d,p)
****
-O 0
6-31+g(d,p)
****


