%chk=lowest10_c1_a2_speciation0_speciationDFT96_speciationDFT96_rank01_E190.11.chk
%nprocshared=20
%mem=40GB
#p opt=loose PM7/gen scf=xqc 

lowest10_c1_a2_speciation0_speciationDFT96_speciationDFT96_rank01_E190.11 DFT input

0 1
Mg     -0.140390000000000     -0.230640000000000     -0.379380000000000
C      -2.417710000000000      2.045650000000000      1.012150000000000
C      -1.643120000000000      0.393420000000000      2.549410000000000
O      -1.451910000000000      1.055140000000000      1.313070000000000
C      -2.381880000000000      3.243070000000000      1.956770000000000
C      -2.934570000000000     -0.417810000000000      2.615340000000000
H      -2.172080000000000      2.421280000000000     -0.004670000000000
H      -3.439480000000000      1.627240000000000      0.937650000000000
H      -0.813490000000000     -0.334700000000000      2.646710000000000
H      -1.528400000000000      1.080510000000000      3.412060000000000
H      -3.007710000000000     -1.093080000000000      1.737850000000000
H      -2.931310000000000     -1.031400000000000      3.540230000000000
H      -3.818180000000000      0.249270000000000      2.649720000000000
H      -1.359650000000000      3.668600000000000      2.009050000000000
H      -3.074520000000000      4.022580000000000      1.575670000000000
H      -2.716710000000000      2.950840000000000      2.971450000000000
H      -2.132360000000000      0.770120000000000     -2.348650000000000
C      -3.373250000000000     -0.745040000000000     -1.358560000000000
C      -2.062790000000000     -0.258500000000000     -1.938450000000000
C      -4.417230000000000     -0.818310000000000     -2.459880000000000
H      -3.228400000000000     -1.747190000000000     -0.904910000000000
H      -3.703750000000000     -0.046440000000000     -0.565460000000000
H      -4.547390000000000      0.191330000000000     -2.907030000000000
H      -4.067620000000000     -1.522200000000000     -3.246300000000000
C      -5.749460000000000     -1.299840000000000     -1.908360000000000
H      -1.642030000000000     -0.973270000000000     -2.675690000000000
H      -5.637020000000000     -2.313000000000000     -1.466570000000000
H      -6.116880000000000     -0.598280000000000     -1.129090000000000
H      -6.487630000000000     -1.343860000000000     -2.734430000000000
C       4.643680000000000      0.772400000000000     -0.632180000000000
C       4.854810000000000     -0.557830000000000     -0.887770000000000
C       3.944780000000000     -1.284970000000000     -0.130270000000000
C       3.183360000000000     -0.417440000000000      0.551470000000000
N       3.596230000000000      0.897840000000000      0.289390000000000
C       2.070190000000000     -0.716820000000000      1.536720000000000
N       0.848190000000000     -1.324130000000000      0.982310000000000
C       0.682690000000000     -2.755360000000000      0.685290000000000
H       5.609560000000000     -0.949360000000000     -1.557840000000000
H       5.187240000000000      1.604660000000000     -1.056990000000000
H       3.892320000000000     -2.357490000000000     -0.104160000000000
H       1.751260000000000      0.269090000000000      1.941430000000000
H       2.452030000000000     -1.289690000000000      2.399580000000000
C       1.549860000000000     -3.616410000000000      1.607250000000000
C      -0.797120000000000     -3.103910000000000      0.937610000000000
C       0.973580000000000     -3.032680000000000     -0.803920000000000
H       1.301610000000000     -3.385720000000000      2.666390000000000
H       1.365430000000000     -4.693360000000000      1.421170000000000
H       2.623430000000000     -3.412180000000000      1.440650000000000
H      -1.456010000000000     -2.485270000000000      0.295400000000000
H      -1.003280000000000     -4.171950000000000      0.709010000000000
H      -1.077850000000000     -2.906560000000000      1.993960000000000
H       0.266820000000000     -2.475950000000000     -1.458830000000000
H       1.988080000000000     -2.731470000000000     -1.099010000000000
H       0.858260000000000     -4.115330000000000     -1.025050000000000
C       1.486830000000000      1.958480000000000     -1.971030000000000
C       1.047980000000000      2.811420000000000      0.185410000000000
O       0.635370000000000      1.932150000000000     -0.842140000000000
C       1.605830000000000      0.554180000000000     -2.567680000000000
C       0.683500000000000      4.244860000000000     -0.139850000000000
H       1.037340000000000      2.625620000000000     -2.733690000000000
H       2.514350000000000      2.312780000000000     -1.739330000000000
H       0.533510000000000      2.511620000000000      1.120030000000000
H       2.122670000000000      2.740820000000000      0.420310000000000
H      -0.406340000000000      4.322150000000000     -0.330320000000000
H       0.959190000000000      4.891350000000000      0.718710000000000
H       1.245940000000000      4.572740000000000     -1.037310000000000
H       2.057130000000000     -0.150420000000000     -1.845710000000000
H       0.611280000000000      0.156700000000000     -2.853290000000000
H       2.249190000000000      0.581670000000000     -3.471060000000000
Na      3.345710000000000     -0.126170000000000     11.109560000000000
C       2.499780000000000      0.356500000000000      7.970580000000000
C       4.329720000000000      1.641360000000000      8.519760000000000
O       3.019640000000000      1.281770000000000      8.901230000000000
C       1.087060000000000     -0.027240000000000      8.386260000000000
C       4.892960000000000      2.627430000000000      9.532810000000000
H       2.444450000000000      0.807400000000000      6.953500000000000
H       3.112870000000000     -0.573490000000000      7.952120000000000
H       4.994380000000000      0.749060000000000      8.511320000000000
H       4.328780000000000      2.139810000000000      7.523490000000000
H       4.925020000000000      2.162550000000000     10.541029999999999
H       5.923610000000000      2.919610000000000      9.239830000000000
H       4.259100000000000      3.538630000000000      9.572469999999999
H       0.437730000000000      0.873640000000000      8.408920000000000
H       0.666680000000000     -0.754940000000000      7.660130000000000
H       1.098700000000000     -0.492230000000000      9.394990000000000
Na      1.612720000000000      3.471130000000000      8.478910000000001
Mg     10.686710000000000     -0.912830000000000      4.780840000000000
C      11.976760000000001     -4.089870000000000      5.841160000000000
C      10.117920000000000     -3.341430000000000      7.127380000000000
O      10.881629999999999     -3.196600000000000      5.943410000000000
C      11.565049999999999     -5.555400000000000      5.712440000000000
C      10.889200000000001     -2.988970000000000      8.398339999999999
H      12.517890000000000     -3.818070000000000      4.909570000000000
H      12.708530000000000     -3.951060000000000      6.660380000000000
H       9.281190000000000     -2.617690000000000      7.054570000000000
H       9.633920000000000     -4.336740000000000      7.192830000000000
H      11.347200000000001     -1.983000000000000      8.301080000000001
H      10.189420000000000     -2.984040000000000      9.259869999999999
H      11.677110000000001     -3.739280000000000      8.607419999999999
H      10.856420000000000     -5.688490000000000      4.870300000000000
H      12.469880000000000     -6.168750000000000      5.519330000000000
H      11.101660000000001     -5.921870000000000      6.649690000000000
H      13.718010000000000     -1.202380000000000      4.398020000000000
C      13.706659999999999     -0.752210000000000      6.537720000000000
C      13.189850000000000     -0.552530000000000      5.126470000000000
C      15.179760000000000     -0.369410000000000      6.611110000000000
H      13.115600000000001     -0.123570000000000      7.236270000000000
H      13.575930000000000     -1.814870000000000      6.824100000000000
H      15.760370000000000     -1.000660000000000      5.903400000000000
H      15.297110000000000      0.698070000000000      6.322870000000000
C      15.721620000000000     -0.570470000000000      8.018590000000000
H      13.243650000000001      0.513700000000000      4.822400000000000
H      15.161450000000000      0.063170000000000      8.738899999999999
H      15.626620000000001     -1.636600000000000      8.316400000000000
H      16.792790000000000     -0.283180000000000      8.041460000000001
C       7.468400000000000     -0.520290000000000      1.197180000000000
C       7.217580000000000      0.756800000000000      1.633380000000000
C       7.272020000000000      0.744770000000000      3.018970000000000
C       7.567200000000000     -0.497390000000000      3.416970000000000
N       7.682140000000000     -1.351390000000000      2.304690000000000
C       7.704220000000000     -1.006780000000000      4.834930000000000
N       8.870279999999999     -0.506920000000000      5.587530000000000
C       8.920210000000001      0.791890000000000      6.280950000000000
H       7.012930000000000      1.607360000000000      0.996780000000000
H       7.499610000000000     -0.850120000000000      0.167970000000000
H       7.089750000000000      1.598190000000000      3.646430000000000
H       7.850460000000000     -2.106190000000000      4.753330000000000
H       6.762070000000000     -0.865350000000000      5.395610000000000
C       7.529830000000000      1.249710000000000      6.742570000000000
C       9.806279999999999      0.599800000000000      7.526040000000000
C       9.603540000000001      1.850000000000000      5.390170000000000
H       7.082890000000000      0.469370000000000      7.394380000000000
H       7.601940000000000      2.195460000000000      7.318260000000000
H       6.856060000000000      1.423420000000000      5.883220000000000
H      10.821949999999999      0.264240000000000      7.230040000000000
H       9.909960000000000      1.548240000000000      8.096209999999999
H       9.378470000000000     -0.173280000000000      8.199479999999999
H      10.640879999999999      1.540420000000000      5.134920000000000
H       9.074020000000001      2.013780000000000      4.441200000000000
H       9.664009999999999      2.824230000000000      5.920780000000000
C      10.936780000000001     -1.574800000000000      1.687990000000000
C      10.062370000000000     -3.494300000000000      2.738280000000000
O      10.864509999999999     -2.338250000000000      2.876900000000000
C      10.975230000000000     -0.086960000000000      2.035530000000000
C      10.820869999999999     -4.606300000000000      2.038510000000000
H      11.872880000000000     -1.837380000000000      1.154330000000000
H      10.073940000000000     -1.734590000000000      1.004910000000000
H       9.780790000000000     -3.836200000000000      3.754910000000000
H       9.102700000000000     -3.303900000000000      2.223240000000000
H      11.761960000000000     -4.823260000000000      2.584570000000000
H      10.189220000000001     -5.518490000000000      2.014100000000000
H      11.055210000000001     -4.299840000000000      0.998770000000000
H      10.053210000000000      0.218510000000000      2.566770000000000
H      11.842460000000001      0.141020000000000      2.688030000000000
H      11.059250000000000      0.517180000000000      1.108950000000000

-C 0
6-31g(d,p)
****
-H 0
6-31g(d,p)
****
-Mg 0
6-31g(d,p)
****
-N 0
6-31+g(d,p)
****
-Na 0
6-31g(d,p)
****
-O 0
6-31+g(d,p)
****


