%chk=lowest10_c1_a2_speciation0_speciationDFT38_speciationDFT96_rank02_E186.30.chk
%nprocshared=20
%mem=40GB
#p opt=loose PM7/gen scf=xqc 

lowest10_c1_a2_speciation0_speciationDFT38_speciationDFT96_rank02_E186.30 DFT input

0 1
Mg     -0.002520000000000      0.313840000000000     -0.381990000000000
C      -1.662770000000000     -2.695390000000000     -1.010590000000000
C       0.686800000000000     -2.942720000000000     -0.669340000000000
O      -0.460370000000000     -2.126450000000000     -0.526260000000000
C      -2.117960000000000     -3.921870000000000     -0.226510000000000
C       1.053620000000000     -3.231960000000000     -2.122560000000000
H      -2.446700000000000     -1.916810000000000     -0.888460000000000
H      -1.619950000000000     -2.908870000000000     -2.095570000000000
H       1.533940000000000     -2.368980000000000     -0.243780000000000
H       0.622700000000000     -3.863560000000000     -0.054890000000000
H       1.110010000000000     -2.285540000000000     -2.699350000000000
H       2.044830000000000     -3.730280000000000     -2.154500000000000
H       0.312730000000000     -3.910840000000000     -2.588520000000000
H      -2.177000000000000     -3.692650000000000      0.856420000000000
H      -3.125010000000000     -4.223600000000000     -0.583710000000000
H      -1.424360000000000     -4.769680000000000     -0.391330000000000
H      -2.351720000000000      0.649310000000000     -2.151970000000000
C      -0.910670000000000     -0.082530000000000     -3.638600000000000
C      -1.285540000000000      0.759280000000000     -2.438640000000000
C      -1.700380000000000      0.385820000000000     -4.848260000000000
H       0.177200000000000      0.013510000000000     -3.834210000000000
H      -1.134680000000000     -1.145550000000000     -3.424330000000000
H      -2.787010000000000      0.287600000000000     -4.634170000000000
H      -1.463250000000000      1.454010000000000     -5.045350000000000
C      -1.351370000000000     -0.443180000000000     -6.073620000000000
H      -0.992390000000000      1.822150000000000     -2.563890000000000
H      -0.269070000000000     -0.346870000000000     -6.305290000000000
H      -1.594570000000000     -1.512340000000000     -5.894150000000000
H      -1.941670000000000     -0.076500000000000     -6.937430000000000
C       0.266160000000000      2.145010000000000      4.114110000000000
C       1.249080000000000      3.011550000000000      3.687620000000000
C       2.019490000000000      2.320740000000000      2.764980000000000
C       1.482000000000000      1.109050000000000      2.651300000000000
N       0.385710000000000      1.014980000000000      3.523460000000000
C       1.948710000000000     -0.064020000000000      1.811810000000000
N       1.848290000000000      0.088500000000000      0.348850000000000
C       2.807680000000000      0.825120000000000     -0.486000000000000
H       1.393010000000000      4.028900000000000      4.028840000000000
H      -0.507340000000000      2.352310000000000      4.839810000000000
H       2.890100000000000      2.707250000000000      2.265340000000000
H       1.280040000000000     -0.913870000000000      2.069120000000000
H       2.964220000000000     -0.371090000000000      2.108070000000000
C       4.211080000000000      0.795910000000000      0.124680000000000
C       2.856770000000000      0.120060000000000     -1.856060000000000
C       2.314810000000000      2.266740000000000     -0.728630000000000
H       4.524190000000000     -0.260610000000000      0.275760000000000
H       4.937660000000000      1.294760000000000     -0.547010000000000
H       4.225540000000000      1.313800000000000      1.100900000000000
H       1.850840000000000      0.106560000000000     -2.321560000000000
H       3.547270000000000      0.642860000000000     -2.552580000000000
H       3.191190000000000     -0.933770000000000     -1.749840000000000
H       1.341030000000000      2.270150000000000     -1.267320000000000
H       2.165230000000000      2.823870000000000      0.206290000000000
H       3.047100000000000      2.826170000000000     -1.348920000000000
C      -2.205100000000000      1.439270000000000      1.581120000000000
C      -1.845150000000000     -0.830830000000000      2.113640000000000
O      -1.791510000000000      0.169430000000000      1.116310000000000
C      -1.359380000000000      2.535310000000000      0.928720000000000
C      -3.268360000000000     -1.298280000000000      2.341970000000000
H      -3.263040000000000      1.592040000000000      1.287910000000000
H      -2.114500000000000      1.555630000000000      2.682510000000000
H      -1.236940000000000     -1.690960000000000      1.769960000000000
H      -1.382540000000000     -0.523650000000000      3.067320000000000
H      -3.707320000000000     -1.647230000000000      1.384730000000000
H      -3.264180000000000     -2.131110000000000      3.074820000000000
H      -3.871540000000000     -0.460440000000000      2.746130000000000
H      -0.292520000000000      2.431180000000000      1.196190000000000
H      -1.436320000000000      2.494740000000000     -0.176180000000000
H      -1.704960000000000      3.531850000000000      1.272340000000000
Na      8.150140000000000     -1.498030000000000      8.208420000000000
C      10.970549999999999     -1.912500000000000      6.582510000000000
C      10.601660000000001     -3.674510000000000      8.019150000000000
O      10.648809999999999     -2.268100000000000      7.910090000000000
C      11.030030000000000     -0.395580000000000      6.473010000000000
C      10.238960000000001     -4.052660000000000      9.447970000000000
H      11.970150000000000     -2.312600000000000      6.296780000000000
H      10.188680000000000     -2.274050000000000      5.876210000000000
H       9.820449999999999     -4.096990000000000      7.348130000000000
H      11.595920000000000     -4.121630000000000      7.790740000000000
H       9.245050000000001     -3.634050000000000      9.713749999999999
H      10.200130000000000     -5.158400000000000      9.545080000000000
H      11.000870000000001     -3.656770000000000     10.152850000000001
H      11.807420000000000      0.006920000000000      7.156770000000000
H      11.282629999999999     -0.104090000000000      5.431450000000000
H      10.046609999999999      0.045860000000000      6.740870000000000
Na     12.805840000000000     -1.609440000000000      9.279870000000001
Mg      5.907950000000000     -6.332470000000000      4.196910000000000
C       2.730900000000000     -6.875910000000000      3.270800000000000
C       2.817370000000000     -5.131650000000000      4.901950000000000
O       3.491020000000000     -6.190110000000000      4.251320000000000
C       2.072330000000000     -5.981140000000000      2.216940000000000
C       1.665690000000000     -5.611460000000000      5.776640000000000
H       3.446700000000000     -7.521880000000000      2.724050000000000
H       1.996430000000000     -7.559350000000000      3.743930000000000
H       3.555800000000000     -4.645040000000000      5.568610000000000
H       2.509110000000000     -4.335490000000000      4.195590000000000
H       1.256120000000000     -4.747760000000000      6.340810000000000
H       2.024730000000000     -6.375690000000000      6.496710000000000
H       0.857280000000000     -6.042350000000000      5.153490000000000
H       2.820770000000000     -5.311080000000000      1.754530000000000
H       1.254640000000000     -5.379490000000000      2.662500000000000
H       1.633200000000000     -6.614410000000000      1.419660000000000
H       5.903860000000000     -7.824460000000000      6.437880000000000
C       7.124420000000000     -6.085950000000000      6.969730000000000
C       6.697780000000000     -7.191800000000000      5.991760000000000
C       6.021680000000000     -5.068270000000000      7.321130000000000
H       7.499360000000000     -6.556810000000000      7.902890000000000
H       7.957360000000000     -5.518330000000000      6.503820000000000
H       6.454000000000000     -4.316740000000000      8.019399999999999
H       5.702690000000000     -4.528970000000000      6.405790000000000
C       4.800610000000000     -5.688750000000000      8.000280000000000
H       7.568230000000000     -7.829760000000000      5.740370000000000
H       4.296110000000000     -6.403230000000000      7.320860000000000
H       5.096040000000000     -6.212610000000000      8.933009999999999
H       4.072860000000000     -4.888580000000000      8.259250000000000
C       4.746410000000000     -2.705980000000000      3.206430000000000
C       5.949090000000000     -2.930670000000000      3.848610000000000
C       6.548170000000000     -3.994600000000000      3.204840000000000
C       5.711420000000000     -4.375360000000000      2.246960000000000
N       4.579630000000000     -3.541820000000000      2.245500000000000
C       5.912630000000000     -5.552880000000000      1.327350000000000
N       5.988190000000000     -6.776760000000000      2.138000000000000
C       6.353900000000000     -8.056839999999999      1.483780000000000
H       6.331590000000000     -2.399900000000000      4.711610000000000
H       4.023730000000000     -1.949700000000000      3.468800000000000
H       7.491070000000000     -4.460700000000000      3.455440000000000
H       6.843830000000000     -5.390510000000000      0.751180000000000
H       5.050000000000000     -5.615980000000000      0.631340000000000
C       7.810050000000000     -8.021440000000000      0.978470000000000
C       6.217590000000000     -9.191380000000001      2.512600000000000
C       5.408200000000000     -8.358879999999999      0.297620000000000
H       8.509790000000001     -7.824020000000000      1.817120000000000
H       8.082890000000001     -8.994590000000001      0.513020000000000
H       7.952920000000000     -7.241700000000000      0.203030000000000
H       5.173500000000000     -9.265919999999999      2.882650000000000
H       6.491730000000000    -10.169219999999999      2.056190000000000
H       6.887200000000000     -9.013529999999999      3.379980000000000
H       4.351170000000000     -8.396269999999999      0.636580000000000
H       5.495450000000000     -7.589880000000000     -0.497940000000000
H       5.656230000000000     -9.340090000000000     -0.164070000000000

-C 0
6-31g(d,p)
****
-H 0
6-31g(d,p)
****
-Mg 0
6-31g(d,p)
****
-N 0
6-31+g(d,p)
****
-Na 0
6-31g(d,p)
****
-O 0
6-31+g(d,p)
****


