%chk=lowest10_c1_a2_speciation7_speciationDFT0_speciationDFT2_rank04_E218.64.chk
%nprocshared=20
%mem=40GB
#p opt=loose PM7/gen scf=xqc 

lowest10_c1_a2_speciation7_speciationDFT0_speciationDFT2_rank04_E218.64 DFT input

0 1
Mg     -0.632940000000000     -0.274130000000000      0.614790000000000
H      -2.270140000000000      2.143040000000000      1.471780000000000
C      -1.088890000000000      1.770020000000000      3.289200000000000
C      -1.926730000000000      1.301810000000000      2.107490000000000
C       0.240960000000000      2.425280000000000      2.879780000000000
H      -1.695410000000000      2.474350000000000      3.895040000000000
H      -0.847000000000000      0.883070000000000      3.914130000000000
H       0.762320000000000      2.739110000000000      3.810320000000000
H       0.886650000000000      1.688450000000000      2.356500000000000
C       0.070990000000000      3.650460000000000      1.983350000000000
H      -2.797170000000000      0.701250000000000      2.441780000000000
H      -0.354500000000000      3.359900000000000      1.000270000000000
H      -0.588750000000000      4.398800000000000      2.469520000000000
H       1.064190000000000      4.112630000000000      1.799410000000000
C       2.370040000000000     -0.745090000000000      1.543360000000000
C       3.473460000000000     -1.230000000000000      0.860750000000000
C       3.058790000000000     -1.505590000000000     -0.432920000000000
C       1.728650000000000     -1.157430000000000     -0.491150000000000
N       1.321490000000000     -0.712570000000000      0.705900000000000
C       0.795550000000000     -1.253900000000000     -1.682910000000000
N      -0.464620000000000     -0.537610000000000     -1.393780000000000
C      -1.535090000000000     -0.455810000000000     -2.404580000000000
H       4.467670000000000     -1.373440000000000      1.260370000000000
H       2.340720000000000     -0.442530000000000      2.582740000000000
H       3.658360000000000     -1.901770000000000     -1.240810000000000
H       0.608190000000000     -2.330360000000000     -1.875320000000000
H       1.291040000000000     -0.786600000000000     -2.553950000000000
C      -1.968650000000000     -1.858460000000000     -2.867680000000000
C      -2.749090000000000      0.260830000000000     -1.783980000000000
C      -1.042870000000000      0.372530000000000     -3.607310000000000
H      -2.322440000000000     -2.459750000000000     -2.003060000000000
H      -2.793860000000000     -1.784260000000000     -3.608770000000000
H      -1.129630000000000     -2.394400000000000     -3.356880000000000
H      -2.470440000000000      1.276700000000000     -1.429600000000000
H      -3.564660000000000      0.368250000000000     -2.534180000000000
H      -3.147720000000000     -0.312740000000000     -0.920050000000000
H      -0.740270000000000      1.389420000000000     -3.273170000000000
H      -0.171870000000000     -0.106230000000000     -4.098380000000000
H      -1.842410000000000      0.475800000000000     -4.371110000000000
Na      1.195990000000000    -10.896340000000000      0.311210000000000
C      -0.513460000000000    -12.627430000000000      2.387180000000000
C       0.851430000000000    -11.263500000000001      3.721510000000000
O       0.742460000000000    -11.987980000000000      2.510820000000000
C      -1.523150000000000    -11.711470000000000      1.702960000000000
C       1.420980000000000    -12.136520000000001      4.836710000000000
H      -0.375220000000000    -13.529070000000001      1.753590000000000
H      -0.908620000000000    -12.993480000000000      3.361600000000000
H       1.549330000000000    -10.416790000000001      3.547500000000000
H      -0.113890000000000    -10.809250000000000      4.037950000000000
H       2.423610000000000    -12.520560000000000      4.556590000000000
H       1.521430000000000    -11.532489999999999      5.762100000000000
H       0.749080000000000    -12.994700000000000      5.044290000000000
H      -1.150700000000000    -11.410990000000000      0.701410000000000
H      -2.486820000000000    -12.247980000000000      1.579750000000000
H      -1.699380000000000    -10.801119999999999      2.311310000000000
C      -0.033920000000000     -7.966360000000000      1.466650000000000
C       1.033490000000000     -7.698080000000000     -0.647160000000000
O       0.791360000000000     -8.538900000000000      0.467580000000000
C      -1.453240000000000     -7.653610000000000      0.990180000000000
C       1.807830000000000     -6.427290000000000     -0.297250000000000
H      -0.127250000000000     -8.726800000000001      2.270110000000000
H       0.446480000000000     -7.088230000000000      1.944660000000000
H       1.671030000000000     -8.279890000000000     -1.346990000000000
H       0.103740000000000     -7.476810000000000     -1.210770000000000
H       2.742290000000000     -6.691100000000000      0.240080000000000
H       2.068510000000000     -5.887490000000000     -1.231550000000000
H       1.195450000000000     -5.744710000000000      0.325870000000000
H      -1.916190000000000     -8.559950000000001      0.546140000000000
H      -2.064460000000000     -7.324830000000000      1.856700000000000
H      -1.454080000000000     -6.830100000000000      0.247910000000000
Na      2.716420000000000    -13.353120000000001      2.387990000000000
C       3.366730000000000    -12.665130000000000     -0.813940000000000
C       4.490820000000000    -11.230060000000000      0.654140000000000
O       3.346480000000000    -12.034030000000000      0.449870000000000
C       2.324590000000000    -13.776460000000000     -0.821240000000000
C       4.372080000000000     -9.880920000000000     -0.051610000000000
H       3.097480000000000    -11.937400000000000     -1.609190000000000
H       4.352060000000000    -13.134090000000000     -1.034090000000000
H       4.564460000000000    -11.035510000000000      1.745700000000000
H       5.431020000000000    -11.754070000000000      0.372580000000000
H       3.457200000000000     -9.352860000000000      0.287580000000000
H       5.256460000000000     -9.256520000000000      0.194360000000000
H       4.333290000000000    -10.013249999999999     -1.152150000000000
H       1.317090000000000    -13.360650000000000     -0.605530000000000
H       2.303910000000000    -14.269100000000000     -1.816070000000000
H       2.571360000000000    -14.537120000000000     -0.051470000000000
C       4.677160000000000    -16.024460000000001      2.236120000000000
C       2.502600000000000    -16.702110000000001      2.647790000000000
O       3.334590000000000    -15.613390000000001      2.328490000000000
C       5.527840000000000    -14.801380000000000      1.921140000000000
C       1.066300000000000    -16.199909999999999      2.705580000000000
H       5.031020000000000    -16.450430000000001      3.202110000000000
H       4.807590000000000    -16.757980000000000      1.409080000000000
H       2.560840000000000    -17.489249999999998      1.862610000000000
H       2.763650000000000    -17.119830000000000      3.646260000000000
H       0.775030000000000    -15.775800000000000      1.720830000000000
H       0.378950000000000    -17.034479999999999      2.955870000000000
H       0.970290000000000    -15.407920000000001      3.479700000000000
H       5.421550000000000    -14.044079999999999      2.727720000000000
H       6.595880000000000    -15.089320000000001      1.833710000000000
H       5.198570000000000    -14.350140000000000      0.962310000000000
Mg      5.885140000000000     -8.015380000000000      3.923690000000000
H       8.436010000000000     -9.855460000000001      3.454890000000000
C       9.432720000000000     -7.988640000000000      4.017760000000000
C       8.299060000000001     -8.759020000000000      3.359790000000000
C       9.570850000000000     -8.298100000000000      5.514710000000000
H      10.377070000000000     -8.264390000000001      3.503540000000000
H       9.264889999999999     -6.899230000000000      3.880360000000000
H       9.747840000000000     -9.385490000000001      5.663940000000000
H      10.456260000000000     -7.744980000000000      5.893530000000000
C       8.355840000000001     -7.863020000000000      6.336560000000000
H       8.210950000000000     -8.478790000000000      2.288120000000000
H       7.455470000000000     -8.443350000000001      6.050700000000000
H       8.559580000000000     -8.044280000000001      7.413910000000000
H       8.156370000000001     -6.779220000000000      6.195060000000000
C       4.545030000000000     -9.832409999999999      6.158980000000000
C       3.500150000000000     -9.594200000000001      7.036730000000000
C       3.063770000000000     -8.298700000000000      6.804250000000000
C       3.874430000000000     -7.795440000000000      5.810770000000000
N       4.750480000000000     -8.730910000000000      5.419450000000000
C       3.837250000000000     -6.410890000000000      5.191960000000000
N       5.037190000000000     -6.212630000000000      4.351480000000000
C       5.277640000000000     -4.934320000000000      3.660040000000000
H       3.097600000000000    -10.286920000000000      7.763220000000000
H       5.111880000000000    -10.749800000000000      6.068270000000000
H       2.260550000000000     -7.780650000000000      7.310150000000000
H       2.907220000000000     -6.327640000000000      4.592170000000000
H       3.834680000000000     -5.664030000000000      6.008180000000000
C       5.494450000000000     -3.814360000000000      4.696870000000000
C       6.557750000000000     -5.068990000000000      2.816320000000000
C       4.102670000000000     -4.581370000000000      2.732520000000000
H       6.346610000000000     -4.070340000000000      5.364610000000000
H       5.720010000000000     -2.849520000000000      4.194430000000000
H       4.592900000000000     -3.662450000000000      5.324100000000000
H       6.443270000000000     -5.865040000000000      2.049810000000000
H       6.786060000000000     -4.112860000000000      2.294580000000000
H       7.425400000000000     -5.326020000000000      3.460230000000000
H       3.946640000000000     -5.385850000000000      1.983970000000000
H       3.165280000000000     -4.440450000000000      3.308800000000000
H       4.310270000000000     -3.634300000000000      2.193770000000000

-C 0
6-31g(d,p)
****
-H 0
6-31g(d,p)
****
-Mg 0
6-31g(d,p)
****
-N 0
6-31+g(d,p)
****
-Na 0
6-31g(d,p)
****
-O 0
6-31+g(d,p)
****


