%chk=lowest10_c1_a2_speciation7_speciationDFT1_speciationDFT36_rank05_E222.87.chk
%nprocshared=20
%mem=40GB
#p opt=loose PM7/gen scf=xqc 

lowest10_c1_a2_speciation7_speciationDFT1_speciationDFT36_rank05_E222.87 DFT input

0 1
Mg      0.703840000000000      0.405460000000000      0.088070000000000
C      -2.978610000000000      0.049290000000000     -0.580880000000000
C      -1.877860000000000      0.101090000000000     -2.607300000000000
O      -1.930170000000000      0.658690000000000     -1.309420000000000
C      -3.329420000000000      0.907650000000000      0.625090000000000
C      -0.695310000000000      0.684300000000000     -3.369890000000000
H      -3.907460000000000     -0.044320000000000     -1.186410000000000
H      -2.667380000000000     -0.955090000000000     -0.226500000000000
H      -1.758770000000000     -1.001900000000000     -2.566530000000000
H      -2.800700000000000      0.346140000000000     -3.174200000000000
H       0.258570000000000      0.440380000000000     -2.860110000000000
H      -0.665780000000000      0.260250000000000     -4.395960000000000
H      -0.796180000000000      1.787320000000000     -3.439950000000000
H      -3.642580000000000      1.919860000000000      0.298390000000000
H      -4.149040000000000      0.431060000000000      1.202010000000000
H      -2.462880000000000      1.017450000000000      1.292290000000000
H       1.060470000000000      2.785770000000000     -2.000660000000000
C       2.924140000000000      2.026390000000000     -1.100120000000000
C       1.474650000000000      2.489640000000000     -1.017400000000000
C       3.088150000000000      0.837110000000000     -2.056610000000000
H       3.532640000000000      2.883350000000000     -1.452680000000000
H       3.269610000000000      1.725670000000000     -0.085700000000000
H       2.529010000000000     -0.045790000000000     -1.674660000000000
H       2.689250000000000      1.103220000000000     -3.058570000000000
C       4.561230000000000      0.464660000000000     -2.208800000000000
H       1.347120000000000      3.294520000000000     -0.265180000000000
H       5.130250000000000      1.331070000000000     -2.609140000000000
H       4.993320000000000      0.166800000000000     -1.229890000000000
H       4.666210000000000     -0.382920000000000     -2.918700000000000
C       0.245370000000000     -2.245460000000000     -1.576420000000000
C      -0.347400000000000     -3.445590000000000     -1.225400000000000
C      -0.728430000000000     -3.329370000000000      0.103380000000000
C      -0.368050000000000     -2.063030000000000      0.501270000000000
N       0.207200000000000     -1.419200000000000     -0.523410000000000
C      -0.528550000000000     -1.427840000000000      1.870940000000000
N      -0.310390000000000      0.035950000000000      1.804760000000000
C      -0.030730000000000      0.782180000000000      3.048030000000000
H      -0.483440000000000     -4.305710000000000     -1.864440000000000
H       0.660410000000000     -1.992920000000000     -2.546130000000000
H      -1.220800000000000     -4.076710000000000      0.709170000000000
H      -1.556400000000000     -1.611210000000000      2.243640000000000
H       0.208090000000000     -1.918450000000000      2.536520000000000
C       1.382940000000000      0.473440000000000      3.572450000000000
C      -0.115660000000000      2.292210000000000      2.744420000000000
C      -1.086790000000000      0.440220000000000      4.117990000000000
H       2.149300000000000      0.768070000000000      2.823390000000000
H       1.574830000000000      1.040470000000000      4.509860000000000
H       1.507480000000000     -0.602560000000000      3.802210000000000
H      -1.122720000000000      2.574520000000000      2.372320000000000
H       0.086580000000000      2.890820000000000      3.660260000000000
H       0.629990000000000      2.580710000000000      1.974510000000000
H      -2.107350000000000      0.651620000000000      3.730430000000000
H      -1.034350000000000     -0.632160000000000      4.398140000000000
H      -0.928950000000000      1.041660000000000      5.037870000000000
Na    -11.694900000000001     -8.936019999999999     -2.216400000000000
C     -12.449600000000000     -5.975230000000000     -3.142010000000000
C     -11.739760000000000     -5.778020000000000     -0.914820000000000
O     -12.403950000000000     -6.586570000000000     -1.867310000000000
C     -11.218970000000001     -6.342860000000000     -3.964950000000000
C     -12.718510000000000     -4.848120000000000     -0.202150000000000
H     -13.348680000000000     -6.357290000000000     -3.670440000000000
H     -12.572110000000000     -4.870280000000000     -3.084640000000000
H     -11.282900000000000     -6.452480000000000     -0.159500000000000
H     -10.901460000000000     -5.195040000000000     -1.356720000000000
H     -13.506919999999999     -5.435130000000000      0.313270000000000
H     -12.171590000000000     -4.249100000000000      0.555870000000000
H     -13.197350000000000     -4.155180000000000     -0.924210000000000
H     -11.149300000000000     -7.444880000000000     -4.079220000000000
H     -11.296020000000000     -5.882880000000000     -4.971940000000000
H     -10.295880000000000     -5.971120000000000     -3.475520000000000
C      -8.481280000000000     -8.147940000000000     -1.617170000000000
C      -8.789249999999999    -10.507960000000001     -1.757840000000000
O      -9.394299999999999     -9.229590000000000     -1.672910000000000
C      -7.613490000000000     -8.008640000000000     -2.868240000000000
C      -7.951030000000000    -10.869270000000000     -0.531930000000000
H      -9.093769999999999     -7.224520000000000     -1.548970000000000
H      -7.872860000000000     -8.169040000000001     -0.689900000000000
H      -9.618980000000001    -11.245430000000001     -1.808030000000000
H      -8.221940000000000    -10.637490000000000     -2.702680000000000
H      -8.556390000000000    -10.749240000000000      0.391060000000000
H      -7.620910000000000    -11.926080000000001     -0.612570000000000
H      -7.043220000000000    -10.235920000000000     -0.470320000000000
H      -8.253170000000001     -7.961780000000000     -3.774490000000000
H      -7.021580000000000     -7.073100000000000     -2.798410000000000
H      -6.899420000000000     -8.852169999999999     -2.955180000000000
Na    -14.481019999999999     -7.231430000000000     -0.870030000000000
C     -14.274470000000001    -10.438290000000000     -1.729110000000000
C     -13.389450000000000    -10.036330000000000      0.400210000000000
O     -13.638400000000001     -9.501950000000001     -0.884080000000000
C     -14.835670000000000     -9.701269999999999     -2.938790000000000
C     -12.154010000000000    -10.934350000000000      0.415300000000000
H     -13.537730000000000    -11.185440000000000     -2.094270000000000
H     -15.127330000000001    -10.947260000000000     -1.226310000000000
H     -13.192220000000001     -9.178970000000000      1.078940000000000
H     -14.277260000000000    -10.560100000000000      0.818440000000000
H     -11.269430000000000    -10.372579999999999      0.050860000000000
H     -11.957509999999999    -11.273360000000000      1.454000000000000
H     -12.308310000000001    -11.829940000000001     -0.220350000000000
H     -14.021910000000000     -9.169440000000000     -3.476890000000000
H     -15.313110000000000    -10.423570000000000     -3.633820000000000
H     -15.596710000000000     -8.960340000000000     -2.616370000000000
C     -17.730910000000002     -7.556710000000000     -0.304470000000000
C     -17.398389999999999     -6.064330000000000     -2.043530000000000
O     -16.783970000000000     -6.981630000000000     -1.171710000000000
C     -16.999890000000001     -8.513650000000000      0.627810000000000
C     -16.328299999999999     -5.503770000000000     -2.970790000000000
H     -18.224900000000002     -6.777890000000000      0.319320000000000
H     -18.484800000000000     -8.141590000000001     -0.877630000000000
H     -18.168299999999999     -6.567700000000000     -2.670660000000000
H     -17.843509999999998     -5.216480000000000     -1.475650000000000
H     -15.864039999999999     -6.328360000000000     -3.553030000000000
H     -16.776409999999998     -4.773180000000000     -3.675740000000000
H     -15.537850000000001     -4.995160000000000     -2.377230000000000
H     -16.235600000000002     -7.963040000000000      1.217800000000000
H     -17.717310000000001     -8.994490000000001      1.324440000000000
H     -16.492280000000001     -9.302690000000000      0.035260000000000
Mg     -6.855640000000000     -3.087110000000000      3.557590000000000
H      -4.246940000000000     -4.489010000000000      2.691340000000000
C      -5.325220000000000     -4.417850000000000      0.790790000000000
C      -5.274290000000000     -4.620440000000000      2.293620000000000
C      -4.462620000000000     -5.471420000000000      0.102430000000000
H      -6.379700000000000     -4.503560000000000      0.448270000000000
H      -4.955400000000000     -3.396520000000000      0.551610000000000
H      -3.415590000000000     -5.383340000000000      0.464620000000000
H      -4.847350000000000     -6.483690000000000      0.355890000000000
C      -4.480760000000000     -5.296700000000000     -1.408450000000000
H      -5.694350000000000     -5.605630000000000      2.586230000000000
H      -5.517490000000000     -5.396420000000000     -1.792540000000000
H      -4.080540000000000     -4.297920000000000     -1.684160000000000
H      -3.846620000000000     -6.080370000000000     -1.872380000000000
C      -6.016230000000000     -2.574840000000000      6.572080000000000
C      -6.468800000000000     -1.664180000000000      7.512610000000000
C      -7.446610000000000     -0.898390000000000      6.895420000000000
C      -7.538560000000000     -1.363580000000000      5.602200000000000
N      -6.681260000000000     -2.378100000000000      5.422830000000000
C      -8.453980000000000     -0.864860000000000      4.497980000000000
N      -8.107950000000001     -1.523560000000000      3.220300000000000
C      -8.828400000000000     -1.205810000000000      1.974720000000000
H      -6.128530000000000     -1.569940000000000      8.534800000000001
H      -5.255830000000000     -3.330620000000000      6.723040000000000
H      -8.016750000000000     -0.091590000000000      7.334990000000000
H      -8.315890000000000      0.228450000000000      4.398700000000000
H      -9.498010000000001     -1.096260000000000      4.792150000000000
C      -8.572720000000000      0.263010000000000      1.586900000000000
C      -8.290810000000000     -2.107730000000000      0.848760000000000
C     -10.337240000000000     -1.461980000000000      2.136700000000000
H      -7.482000000000000      0.442050000000000      1.461320000000000
H      -9.082229999999999      0.512820000000000      0.631980000000000
H      -8.953840000000000      0.957020000000000      2.362990000000000
H      -8.463530000000000     -3.179170000000000      1.086210000000000
H      -8.801869999999999     -1.879990000000000     -0.113380000000000
H      -7.200220000000000     -1.950440000000000      0.704930000000000
H     -10.520230000000000     -2.521180000000000      2.419040000000000
H     -10.771699999999999     -0.804570000000000      2.917320000000000
H     -10.871980000000001     -1.252200000000000      1.185360000000000

-C 0
6-31g(d,p)
****
-H 0
6-31g(d,p)
****
-Mg 0
6-31g(d,p)
****
-N 0
6-31+g(d,p)
****
-Na 0
6-31g(d,p)
****
-O 0
6-31+g(d,p)
****


