%chk=lowest10_c1_a2_speciation0_speciationDFT1_speciationDFT1_rank06_E179.21.chk
%nprocshared=20
%mem=40GB
#p opt=loose PM7/gen scf=xqc 

lowest10_c1_a2_speciation0_speciationDFT1_speciationDFT1_rank06_E179.21 DFT input

0 1
Mg     -0.441630000000000     -0.721260000000000      0.173620000000000
H      -0.863420000000000     -2.611480000000000     -2.113610000000000
C      -1.717940000000000     -0.783730000000000     -2.971620000000000
C      -1.497040000000000     -1.748460000000000     -1.824070000000000
C      -2.483730000000000     -1.492260000000000     -4.081770000000000
H      -2.294850000000000      0.093290000000000     -2.604890000000000
H      -0.731000000000000     -0.428930000000000     -3.342270000000000
H      -1.896900000000000     -2.371730000000000     -4.425860000000000
H      -3.460950000000000     -1.843560000000000     -3.683870000000000
C      -2.730420000000000     -0.564270000000000     -5.260980000000000
H      -2.452580000000000     -2.073660000000000     -1.362030000000000
H      -3.330860000000000      0.313300000000000     -4.939910000000000
H      -1.764150000000000     -0.215700000000000     -5.683410000000000
H      -3.288910000000000     -1.116550000000000     -6.044620000000000
C       1.098790000000000     -2.750810000000000      2.062850000000000
C       1.961160000000000     -2.534700000000000      3.125690000000000
C       2.087450000000000     -1.161500000000000      3.267610000000000
C       1.309340000000000     -0.599140000000000      2.283490000000000
N       0.715070000000000     -1.565090000000000      1.567640000000000
C       1.093680000000000      0.875920000000000      2.005210000000000
N       0.343420000000000      1.055730000000000      0.746020000000000
C       0.039410000000000      2.403740000000000      0.232450000000000
H       2.441140000000000     -3.289340000000000      3.732350000000000
H       0.774150000000000     -3.713030000000000      1.685340000000000
H       2.682820000000000     -0.630190000000000      3.997430000000000
H       2.082640000000000      1.361390000000000      1.917670000000000
H       0.527150000000000      1.296390000000000      2.860940000000000
C       1.349980000000000      3.116360000000000     -0.151590000000000
C      -0.833390000000000      2.275770000000000     -1.029500000000000
C      -0.727210000000000      3.227140000000000      1.282580000000000
H       1.893740000000000      2.528550000000000     -0.923640000000000
H       1.144380000000000      4.129210000000000     -0.557330000000000
H       2.015320000000000      3.237990000000000      0.726420000000000
H      -1.798800000000000      1.779710000000000     -0.793240000000000
H      -1.056180000000000      3.280710000000000     -1.453790000000000
H      -0.312740000000000      1.681810000000000     -1.810680000000000
H      -1.668060000000000      2.708420000000000      1.567030000000000
H      -0.114050000000000      3.379690000000000      2.194120000000000
H      -0.983030000000000      4.230520000000000      0.879570000000000
Na     -2.544960000000000     -2.434300000000000     12.537419999999999
C      -2.888060000000000     -2.598850000000000      9.280139999999999
C      -3.447720000000000     -4.612810000000000     10.247570000000000
O      -2.466110000000000     -3.600750000000000     10.180249999999999
C      -1.820550000000000     -1.517050000000000      9.200749999999999
C      -2.994320000000000     -5.682250000000000     11.231130000000000
H      -3.022350000000000     -3.017320000000000      8.257840000000000
H      -3.830630000000000     -2.121830000000000      9.633100000000001
H      -4.415310000000000     -4.201890000000000     10.616289999999999
H      -3.582660000000000     -5.098800000000000      9.254280000000000
H      -2.857020000000000     -5.239570000000000     12.240700000000000
H      -3.759870000000000     -6.484580000000000     11.292640000000000
H      -2.033590000000000     -6.127520000000000     10.895750000000000
H      -0.862870000000000     -1.950500000000000      8.841930000000000
H      -2.142540000000000     -0.723480000000000      8.493490000000000
H      -1.661670000000000     -1.062750000000000     10.201840000000001
Na     -0.464460000000000     -4.773020000000000      8.927590000000000
Mg     -3.488750000000000     -8.131169999999999      4.033870000000000
H      -3.931240000000000    -10.082409999999999      1.681770000000000
C      -4.769540000000000     -8.241460000000000      0.851580000000000
C      -4.549260000000000     -9.215579999999999      1.994150000000000
C      -5.537120000000000     -8.933140000000000     -0.271420000000000
H      -5.344290000000000     -7.366530000000000      1.226190000000000
H      -3.781660000000000     -7.886310000000000      0.484540000000000
H      -4.955270000000000     -9.811210000000001     -0.627360000000000
H      -6.518200000000000     -9.284649999999999      0.116630000000000
C      -5.775290000000000     -7.988690000000000     -1.440440000000000
H      -5.511610000000000     -9.549020000000001      2.435870000000000
H      -6.372150000000000     -7.111870000000000     -1.110750000000000
H      -4.805900000000000     -7.639950000000000     -1.855620000000000
H      -6.334090000000000     -8.526949999999999     -2.233930000000000
C      -1.948170000000000    -10.165060000000000      5.916000000000000
C      -1.082060000000000     -9.963070000000000      6.977870000000000
C      -0.941770000000000     -8.591550000000000      7.129870000000000
C      -1.715190000000000     -8.015990000000000      6.146080000000000
N      -2.323300000000000     -8.971360000000001      5.429550000000000
C      -1.909120000000000     -6.536640000000000      5.863020000000000
N      -2.678040000000000     -6.360350000000000      4.612380000000000
C      -2.992020000000000     -5.019460000000000      4.088370000000000
H      -0.608010000000000    -10.728170000000000      7.577500000000000
H      -2.281860000000000    -11.120369999999999      5.531060000000000
H      -0.339680000000000     -8.075139999999999      7.864580000000000
H      -0.912200000000000     -6.069710000000000      5.751690000000000
H      -2.447950000000000     -6.093460000000000      6.725400000000000
C      -1.689960000000000     -4.297010000000000      3.694830000000000
C      -3.863950000000000     -5.172700000000000      2.828820000000000
C      -3.766590000000000     -4.195350000000000      5.130860000000000
H      -1.138590000000000     -4.893280000000000      2.935290000000000
H      -1.907830000000000     -3.295660000000000      3.265850000000000
H      -1.027880000000000     -4.150210000000000      4.571950000000000
H      -4.819720000000000     -5.684320000000000      3.071500000000000
H      -4.104760000000000     -4.176340000000000      2.395190000000000
H      -3.334720000000000     -5.766600000000000      2.053020000000000
H      -4.703870000000000     -4.719080000000000      5.417620000000000
H      -3.155230000000000     -4.034400000000000      6.041000000000000
H      -4.029210000000000     -3.196410000000000      4.721070000000000

-C 0
6-31g(d,p)
****
-H 0
6-31g(d,p)
****
-Mg 0
6-31g(d,p)
****
-N 0
6-31+g(d,p)
****
-Na 0
6-31g(d,p)
****
-O 0
6-31+g(d,p)
****


