%chk=lowest10_c1_a2_speciation0_speciationDFT0_speciationDFT0_rank05_E179.07.chk
%nprocshared=20
%mem=40GB
#p opt=loose PM7/gen scf=xqc 

lowest10_c1_a2_speciation0_speciationDFT0_speciationDFT0_rank05_E179.07 DFT input

0 1
Mg     -0.409170000000000      0.005210000000000      1.102220000000000
H      -3.262250000000000      0.734120000000000      1.889200000000000
C      -2.996500000000000      2.149240000000000      0.226430000000000
C      -2.484660000000000      1.372540000000000      1.425310000000000
C      -3.590320000000000      1.256310000000000     -0.873400000000000
H      -3.783610000000000      2.842560000000000      0.587580000000000
H      -2.167050000000000      2.753830000000000     -0.198990000000000
H      -4.435170000000000      0.656600000000000     -0.469930000000000
H      -3.986200000000000      1.933850000000000     -1.658070000000000
C      -2.575790000000000      0.319500000000000     -1.535700000000000
H      -2.039050000000000      2.059180000000000      2.178480000000000
H      -2.250780000000000     -0.477430000000000     -0.836880000000000
H      -3.053470000000000     -0.166140000000000     -2.414910000000000
H      -1.688340000000000      0.884180000000000     -1.892940000000000
C      -0.966350000000000     -3.065350000000000      0.501720000000000
C      -0.180370000000000     -4.035830000000000     -0.099110000000000
C       1.012850000000000     -3.425500000000000     -0.451660000000000
C       0.898880000000000     -2.109500000000000     -0.070850000000000
N      -0.293440000000000     -1.905750000000000      0.509820000000000
C       1.925700000000000     -1.006610000000000     -0.227790000000000
N       1.306380000000000      0.303400000000000      0.056910000000000
C       2.077140000000000      1.550240000000000     -0.101450000000000
H      -0.442040000000000     -5.071840000000000     -0.258560000000000
H      -1.961600000000000     -3.205900000000000      0.906610000000000
H       1.862790000000000     -3.882380000000000     -0.940410000000000
H       2.753250000000000     -1.214580000000000      0.481910000000000
H       2.296810000000000     -1.021340000000000     -1.268380000000000
C       2.424050000000000      1.754180000000000     -1.589470000000000
C       1.209500000000000      2.734720000000000      0.361580000000000
C       3.363120000000000      1.514560000000000      0.743520000000000
H       1.493350000000000      1.795370000000000     -2.197380000000000
H       2.986490000000000      2.699780000000000     -1.738800000000000
H       3.055470000000000      0.929370000000000     -1.975760000000000
H       0.947390000000000      2.637880000000000      1.436790000000000
H       1.753630000000000      3.695840000000000      0.221750000000000
H       0.268540000000000      2.784700000000000     -0.225580000000000
H       3.116830000000000      1.363620000000000      1.816340000000000
H       4.034340000000000      0.695790000000000      0.412170000000000
H       3.922930000000000      2.469130000000000      0.639180000000000
Na     -2.536190000000000    -13.081709999999999      3.349250000000000
C      -1.801300000000000    -16.246729999999999      3.144190000000000
C       0.109500000000000    -14.968600000000000      2.990650000000000
O      -1.199480000000000    -15.147980000000000      2.493570000000000
C      -3.209800000000000    -16.439350000000001      2.599760000000000
C       0.748190000000000    -13.774330000000001      2.295800000000000
H      -1.231040000000000    -17.183440000000001      2.948680000000000
H      -1.883080000000000    -16.060790000000001      4.239350000000000
H       0.092940000000000    -14.755129999999999      4.083830000000000
H       0.738070000000000    -15.862959999999999      2.776410000000000
H       0.157410000000000    -12.854799999999999      2.494400000000000
H       1.780710000000000    -13.626260000000000      2.677380000000000
H       0.792390000000000    -13.949450000000001      1.199630000000000
H      -3.173970000000000    -16.638929999999998      1.507660000000000
H      -3.693340000000000    -17.301670000000001      3.106080000000000
H      -3.818640000000000    -15.528549999999999      2.782880000000000
Na     -0.824210000000000    -16.009689999999999      0.029820000000000
Mg     -0.298770000000000     -8.483790000000001      3.514910000000000
H       1.801050000000000     -6.400060000000000      2.406280000000000
C       0.587350000000000     -5.065340000000000      3.649840000000000
C       0.751500000000000     -6.270100000000000      2.739080000000000
C       1.447430000000000     -5.159220000000000      4.917760000000000
H       0.882240000000000     -4.161050000000000      3.077290000000000
H      -0.481190000000000     -4.964650000000000      3.936150000000000
H       2.521170000000000     -5.250950000000000      4.644460000000000
H       1.310550000000000     -4.215410000000000      5.486260000000000
C       1.055910000000000     -6.321570000000000      5.833500000000000
H       0.078910000000000     -6.187470000000000      1.860150000000000
H       1.256980000000000     -7.296930000000000      5.346080000000000
H       1.657200000000000     -6.269180000000000      6.766800000000000
H      -0.019340000000000     -6.260520000000000      6.106480000000000
C       1.810460000000000    -10.433149999999999      4.874380000000000
C       1.652590000000000    -11.488530000000001      5.757880000000000
C       0.295740000000000    -11.593610000000000      6.023600000000000
C      -0.312770000000000    -10.586180000000001      5.308360000000000
N       0.605140000000000     -9.905260000000000      4.608700000000000
C      -1.789420000000000    -10.243280000000000      5.257180000000000
N      -1.975540000000000     -8.945850000000000      4.573640000000000
C      -3.315830000000000     -8.351419999999999      4.425710000000000
H       2.436550000000000    -12.114350000000000      6.161950000000000
H       2.743730000000000    -10.080700000000000      4.454390000000000
H      -0.188080000000000    -12.310330000000000      6.672930000000000
H      -2.311420000000000    -11.058299999999999      4.717090000000000
H      -2.166330000000000    -10.169449999999999      6.294340000000000
C      -3.883930000000000     -8.001099999999999      5.815130000000000
C      -3.188550000000000     -7.051380000000000      3.611300000000000
C      -4.266160000000000     -9.311600000000000      3.688740000000000
H      -3.198360000000000     -7.302930000000000      6.344270000000000
H      -4.878560000000000     -7.515070000000000      5.723990000000000
H      -4.010830000000000     -8.907150000000000      6.441350000000000
H      -2.787190000000000     -7.258420000000000      2.596250000000000
H      -4.180980000000000     -6.560230000000000      3.499740000000000
H      -2.505870000000000     -6.336910000000000      4.118010000000000
H      -3.859190000000000     -9.565000000000000      2.686550000000000
H      -4.409850000000000    -10.249580000000000      4.263490000000000
H      -5.265560000000000     -8.843080000000000      3.557500000000000

-C 0
6-31g(d,p)
****
-H 0
6-31g(d,p)
****
-Mg 0
6-31g(d,p)
****
-N 0
6-31+g(d,p)
****
-Na 0
6-31g(d,p)
****
-O 0
6-31+g(d,p)
****


