%chk=lowest10_c1_a2_speciation7_speciationDFT1_speciationDFT1_rank08_E220.52.chk
%nprocshared=20
%mem=40GB
#p opt=loose PM7/gen scf=xqc 

lowest10_c1_a2_speciation7_speciationDFT1_speciationDFT1_rank08_E220.52 DFT input

0 1
Mg     -0.412660000000000      0.524660000000000     -0.412360000000000
H      -1.807190000000000     -0.299300000000000     -2.934690000000000
C       0.127680000000000     -1.285550000000000     -3.234620000000000
C      -0.723330000000000     -0.112730000000000     -2.791440000000000
C      -0.051670000000000     -1.497350000000000     -4.732560000000000
H       1.193540000000000     -1.071280000000000     -3.000730000000000
H      -0.183630000000000     -2.192860000000000     -2.671500000000000
H      -1.124110000000000     -1.697710000000000     -4.947100000000000
H       0.258430000000000     -0.574770000000000     -5.270720000000000
C       0.783410000000000     -2.667580000000000     -5.227960000000000
H      -0.401530000000000      0.838790000000000     -3.264180000000000
H       1.861190000000000     -2.477720000000000     -5.037210000000000
H       0.476050000000000     -3.602840000000000     -4.713650000000000
H       0.625890000000000     -2.787070000000000     -6.319680000000000
C      -2.861860000000000      2.063010000000000      0.891250000000000
C      -3.140040000000000      2.386340000000000      2.209820000000000
C      -2.098380000000000      1.885330000000000      2.974610000000000
C      -1.236640000000000      1.270750000000000      2.097340000000000
N      -1.704280000000000      1.387710000000000      0.845360000000000
C       0.068370000000000      0.569820000000000      2.421230000000000
N       0.591340000000000     -0.119420000000000      1.224500000000000
C       1.833570000000000     -0.910580000000000      1.289610000000000
H      -3.999350000000000      2.930020000000000      2.574830000000000
H      -3.466940000000000      2.313440000000000      0.027660000000000
H      -1.981920000000000      1.953630000000000      4.047550000000000
H      -0.123420000000000     -0.170340000000000      3.219110000000000
H       0.783250000000000      1.342850000000000      2.770090000000000
C       1.621110000000000     -2.127820000000000      2.209380000000000
C       2.179240000000000     -1.420590000000000     -0.121440000000000
C       3.001610000000000     -0.050760000000000      1.804550000000000
H       0.788120000000000     -2.757160000000000      1.825570000000000
H       2.539880000000000     -2.749040000000000      2.260720000000000
H       1.373060000000000     -1.813990000000000      3.242990000000000
H       2.356950000000000     -0.571740000000000     -0.815580000000000
H       3.100810000000000     -2.044790000000000     -0.096220000000000
H       1.354510000000000     -2.043490000000000     -0.528770000000000
H       3.149130000000000      0.832710000000000      1.146600000000000
H       2.810780000000000      0.302140000000000      2.838560000000000
H       3.942400000000000     -0.641820000000000      1.820990000000000
Na    -10.866460000000000     -2.989710000000000      1.024780000000000
C      -8.572139999999999     -1.122110000000000     -0.176750000000000
C      -7.731820000000000     -3.308860000000000     -0.298750000000000
O      -8.532360000000001     -2.398640000000000      0.431160000000000
C      -9.717359999999999     -1.034220000000000     -1.180570000000000
C      -6.280830000000000     -3.269630000000000      0.174290000000000
H      -8.750360000000001     -0.370700000000000      0.621470000000000
H      -7.605580000000000     -0.842490000000000     -0.653020000000000
H      -8.132260000000000     -4.329460000000000     -0.119360000000000
H      -7.787030000000000     -3.143420000000000     -1.397610000000000
H      -6.217160000000000     -3.521300000000000      1.253370000000000
H      -5.687060000000000     -4.013260000000000     -0.397530000000000
H      -5.842220000000000     -2.263730000000000      0.011000000000000
H     -10.685040000000001     -1.241080000000000     -0.677410000000000
H      -9.751139999999999     -0.013760000000000     -1.615370000000000
H      -9.573919999999999     -1.764790000000000     -2.002470000000000
C     -11.253299999999999     -4.704390000000000     -1.842740000000000
C     -13.098039999999999     -5.039260000000000     -0.370020000000000
O     -11.786569999999999     -4.531270000000000     -0.541840000000000
C     -12.029180000000000     -3.961680000000000     -2.930890000000000
C     -13.194039999999999     -6.554240000000000     -0.547970000000000
H     -10.232870000000000     -4.267500000000000     -1.823470000000000
H     -11.112040000000000     -5.776140000000000     -2.091410000000000
H     -13.384280000000000     -4.820780000000000      0.681250000000000
H     -13.838430000000001     -4.499110000000000     -0.995620000000000
H     -12.455679999999999     -7.061410000000000      0.108060000000000
H     -14.214829999999999     -6.891500000000000     -0.271260000000000
H     -13.018110000000000     -6.842480000000000     -1.603930000000000
H     -12.127990000000000     -2.888150000000000     -2.665520000000000
H     -11.479620000000001     -4.044560000000000     -3.890840000000000
H     -13.033759999999999     -4.406320000000000     -3.079590000000000
Na     -7.791470000000000     -2.524840000000000      2.703190000000000
C     -10.837840000000000     -2.671480000000000      4.032280000000000
C      -9.944649999999999     -4.798270000000000      3.635220000000000
O      -9.969420000000000     -3.444670000000000      3.230130000000000
C     -10.541880000000001     -1.196630000000000      3.790090000000000
C     -11.157249999999999     -5.570750000000000      3.119630000000000
H     -11.894000000000000     -2.861060000000000      3.744260000000000
H     -10.690700000000000     -2.864830000000000      5.118650000000000
H      -9.036720000000001     -5.257170000000000      3.188330000000000
H      -9.832260000000000     -4.906960000000000      4.736590000000000
H     -11.214399999999999     -5.497620000000000      2.014070000000000
H     -11.059990000000001     -6.640150000000000      3.401330000000000
H     -12.094540000000000     -5.177340000000000      3.563090000000000
H     -10.670439999999999     -0.950040000000000      2.714320000000000
H     -11.235640000000000     -0.568550000000000      4.387550000000000
H      -9.499470000000001     -0.961150000000000      4.090190000000000
C      -6.510450000000000     -1.687460000000000      5.643520000000000
C      -6.189580000000000      0.047660000000000      4.143210000000000
O      -6.798300000000000     -1.203080000000000      4.354310000000000
C      -7.172600000000000     -3.050520000000000      5.796600000000000
C      -6.567190000000000      0.526650000000000      2.747900000000000
H      -5.413870000000000     -1.819270000000000      5.783770000000000
H      -6.930500000000000     -1.010630000000000      6.420990000000000
H      -6.560610000000000      0.798180000000000      4.877050000000000
H      -5.080570000000000     -0.038390000000000      4.191920000000000
H      -7.671240000000000      0.621750000000000      2.667750000000000
H      -6.106890000000000      1.514670000000000      2.543510000000000
H      -6.213390000000000     -0.201460000000000      1.986100000000000
H      -6.777770000000000     -3.755130000000000      5.033030000000000
H      -6.973150000000000     -3.463400000000000      6.807040000000000
H      -8.269570000000000     -2.954390000000000      5.659220000000000
Mg     -5.571770000000000     -8.623340000000001     -4.561330000000000
H      -8.123150000000001     -9.354290000000001     -6.135950000000000
C      -8.458460000000001     -7.223710000000000     -5.776990000000000
C      -7.991580000000000     -8.598100000000001     -5.334780000000000
C      -9.952270000000000     -7.264400000000000     -6.085620000000000
H      -8.255160000000000     -6.492100000000000     -4.964740000000000
H      -7.883890000000000     -6.920740000000000     -6.679710000000000
H     -10.141460000000000     -8.008500000000000     -6.889910000000000
H     -10.507450000000000     -7.571630000000000     -5.172310000000000
C     -10.458190000000000     -5.903640000000000     -6.540250000000000
H      -8.493790000000001     -8.916539999999999     -4.397400000000000
H     -10.291000000000000     -5.147620000000000     -5.745010000000000
H      -9.930199999999999     -5.587000000000000     -7.464660000000000
H     -11.545550000000000     -5.972070000000000     -6.751340000000000
C      -4.188590000000000    -11.469989999999999     -4.759330000000000
C      -2.864750000000000    -11.861190000000001     -4.644670000000000
C      -2.122340000000000    -10.711930000000001     -4.417630000000000
C      -3.021160000000000     -9.668150000000001     -4.418280000000000
N      -4.261310000000000    -10.137540000000000     -4.614280000000000
C      -2.730160000000000     -8.190670000000001     -4.221010000000000
N      -3.953610000000000     -7.398130000000000     -4.468240000000000
C      -3.948160000000000     -5.927840000000000     -4.366730000000000
H      -2.482170000000000    -12.870320000000000     -4.714520000000000
H      -5.037820000000000    -12.118900000000000     -4.932730000000000
H      -1.052240000000000    -10.644330000000000     -4.277820000000000
H      -1.945170000000000     -7.891350000000000     -4.941060000000000
H      -2.372260000000000     -8.051119999999999     -3.180590000000000
C      -3.030700000000000     -5.334690000000000     -5.453130000000000
C      -5.379520000000000     -5.411460000000000     -4.601400000000000
C      -3.482370000000000     -5.478800000000000     -2.970540000000000
H      -3.375860000000000     -5.653380000000000     -6.461400000000000
H      -3.038600000000000     -4.224550000000000     -5.413270000000000
H      -1.981540000000000     -5.668100000000000     -5.321290000000000
H      -6.073490000000000     -5.810730000000000     -3.831130000000000
H      -5.408630000000000     -4.300070000000000     -4.550550000000000
H      -5.750500000000000     -5.720150000000000     -5.602310000000000
H      -4.143070000000000     -5.909020000000000     -2.187270000000000
H      -2.439580000000000     -5.802370000000000     -2.775240000000000
H      -3.511090000000000     -4.370850000000000     -2.888500000000000

-C 0
6-31g(d,p)
****
-H 0
6-31g(d,p)
****
-Mg 0
6-31g(d,p)
****
-N 0
6-31+g(d,p)
****
-Na 0
6-31g(d,p)
****
-O 0
6-31+g(d,p)
****


