%chk=lowest10_c1_a2_speciation0_speciationDFT36_speciationDFT38_rank10_E180.88.chk
%nprocshared=20
%mem=40GB
#p opt=loose PM7/gen scf=xqc 

lowest10_c1_a2_speciation0_speciationDFT36_speciationDFT38_rank10_E180.88 DFT input

0 1
Mg      0.450190000000000      0.142950000000000     -0.896100000000000
C      -2.244340000000000     -1.130110000000000      0.500990000000000
C      -0.348970000000000     -2.521630000000000      0.948830000000000
O      -0.909780000000000     -1.480410000000000      0.179100000000000
C      -2.524220000000000     -0.903850000000000      1.988440000000000
C      -1.002880000000000     -3.865750000000000      0.669450000000000
H      -2.430860000000000     -0.159110000000000      0.001820000000000
H      -2.959650000000000     -1.851870000000000      0.057710000000000
H       0.713540000000000     -2.601360000000000      0.649420000000000
H      -0.317100000000000     -2.277720000000000      2.028950000000000
H      -0.441250000000000     -4.659580000000000      1.203870000000000
H      -0.985950000000000     -4.078340000000000     -0.419560000000000
H      -2.050860000000000     -3.862190000000000      1.027300000000000
H      -1.796990000000000     -0.196280000000000      2.419320000000000
H      -2.489070000000000     -1.861120000000000      2.546230000000000
H      -3.534540000000000     -0.464930000000000      2.110430000000000
H       0.463910000000000     -1.365440000000000     -3.094020000000000
C       2.595110000000000     -1.200460000000000     -2.601360000000000
C       1.185680000000000     -0.600630000000000     -2.743420000000000
C       2.733460000000000     -2.321410000000000     -1.552010000000000
H       2.909160000000000     -1.590570000000000     -3.591680000000000
H       3.292380000000000     -0.387470000000000     -2.305810000000000
H       3.791180000000000     -2.669550000000000     -1.550480000000000
H       2.517720000000000     -1.918480000000000     -0.542070000000000
C       1.843230000000000     -3.533740000000000     -1.824750000000000
H       1.200940000000000      0.245100000000000     -3.457130000000000
H       0.774810000000000     -3.246920000000000     -1.789060000000000
H       2.072400000000000     -3.971330000000000     -2.818300000000000
H       2.017700000000000     -4.308900000000000     -1.046390000000000
C       1.693000000000000     -0.374910000000000      2.802190000000000
C       2.539270000000000     -0.036920000000000      1.771130000000000
C       1.931030000000000      0.977460000000000      1.052730000000000
C       0.742220000000000      1.229830000000000      1.611200000000000
N       0.542120000000000      0.423230000000000      2.749210000000000
C      -0.285640000000000      2.200850000000000      1.093800000000000
N      -0.677680000000000      1.800850000000000     -0.263230000000000
C      -1.568050000000000      2.691900000000000     -1.045590000000000
H       3.491260000000000     -0.504800000000000      1.559300000000000
H       1.867080000000000     -1.146960000000000      3.538160000000000
H       2.325140000000000      1.445120000000000      0.158280000000000
H       0.146610000000000      3.217950000000000      1.105430000000000
H      -1.171510000000000      2.160670000000000      1.762140000000000
C      -0.853300000000000      4.014270000000000     -1.386640000000000
C      -1.946840000000000      1.982640000000000     -2.356250000000000
C      -2.867320000000000      2.999490000000000     -0.262420000000000
H       0.066740000000000      3.817590000000000     -1.975450000000000
H      -1.521140000000000      4.676260000000000     -1.980620000000000
H      -0.577150000000000      4.575690000000000     -0.471320000000000
H      -2.498850000000000      1.041190000000000     -2.151410000000000
H      -2.597060000000000      2.634560000000000     -2.982300000000000
H      -1.035770000000000      1.735950000000000     -2.940660000000000
H      -3.404310000000000      2.061620000000000     -0.005390000000000
H      -2.655340000000000      3.551100000000000      0.677390000000000
H      -3.553190000000000      3.632310000000000     -0.867600000000000
Na     -0.700900000000000      4.948910000000000     14.554620000000000
C       0.480690000000000      5.430160000000000     11.530659999999999
C      -1.822340000000000      5.409370000000000     11.502810000000000
O      -0.669930000000000      4.720570000000000     11.937600000000000
C       1.719580000000000      4.674890000000000     11.990570000000000
C      -3.060800000000000      4.648080000000000     11.952600000000000
H       0.524960000000000      5.512180000000000     10.420349999999999
H       0.506310000000000      6.441150000000000     11.997389999999999
H      -1.867970000000000      6.428430000000000     11.950640000000000
H      -1.848700000000000      5.466370000000000     10.392519999999999
H      -3.080970000000000      4.569980000000000     13.060309999999999
H      -3.973200000000000      5.183260000000000     11.613460000000000
H      -3.060880000000000      3.626880000000000     11.515670000000000
H       1.739030000000000      3.660660000000000     11.538050000000000
H       2.632500000000000      5.224960000000000     11.678290000000001
H       1.719570000000000      4.578500000000000     13.097239999999999
Na     -0.640990000000000      2.561950000000000     10.426310000000001
Mg     -1.247270000000000      8.337820000000001      5.983820000000000
C       0.013890000000000      5.337470000000000      3.889670000000000
C      -2.290380000000000      5.257350000000000      3.910490000000000
O      -1.138780000000000      5.503550000000000      4.690860000000000
C       1.232110000000000      5.169210000000000      4.783990000000000
C      -3.534480000000000      5.548450000000000      4.737950000000000
H      -0.045990000000000      4.423070000000000      3.258840000000000
H       0.163020000000000      6.228720000000000      3.243820000000000
H      -2.312470000000000      5.908670000000000      3.009300000000000
H      -2.329550000000000      4.190040000000000      3.601170000000000
H      -3.545030000000000      6.609050000000000      5.061520000000000
H      -4.443450000000000      5.352570000000000      4.130720000000000
H      -3.554170000000000      4.896440000000000      5.636200000000000
H       1.108840000000000      4.279080000000000      5.434510000000000
H       2.143270000000000      5.049230000000000      4.161820000000000
H       1.366520000000000      6.053670000000000      5.426440000000000
H      -3.294490000000000      6.415450000000000      7.735540000000000
C      -3.410880000000000      8.578180000000000      8.067769999999999
C      -2.625020000000000      7.289650000000000      7.864690000000000
C      -4.311280000000000      8.878030000000001      6.863280000000000
H      -4.025490000000000      8.466139999999999      8.984990000000000
H      -2.697880000000000      9.420500000000001      8.209510000000000
H      -3.691400000000000      9.045070000000001      5.955210000000000
H      -4.989340000000000      8.017849999999999      6.677150000000000
C      -5.163030000000000     10.118449999999999      7.116820000000000
H      -1.925140000000000      7.122460000000000      8.707200000000000
H      -5.807320000000000      9.959149999999999      8.007890000000000
H      -4.518730000000000     11.007199999999999      7.286470000000000
H      -5.815530000000000     10.311480000000000      6.239270000000000
C      -2.447240000000000      8.552070000000001      3.060680000000000
C      -1.853820000000000      8.856710000000000      1.847590000000000
C      -0.510970000000000      9.088850000000001      2.107120000000000
C      -0.337730000000000      8.895330000000000      3.459890000000000
N      -1.514780000000000      8.577629999999999      4.020480000000000
C       0.937130000000000      9.021150000000000      4.275150000000000
N       0.754680000000000      8.436340000000000      5.625980000000000
C       1.686290000000000      8.807200000000000      6.708390000000000
H      -2.345020000000000      8.906540000000000      0.886420000000000
H      -3.493790000000000      8.319459999999999      3.222090000000000
H       0.252410000000000      9.355300000000000      1.387860000000000
H       1.748290000000000      8.460889999999999      3.765960000000000
H       1.199280000000000     10.097250000000001      4.318880000000000
C       1.425210000000000     10.247000000000000      7.181830000000000
C       1.453800000000000      7.853410000000000      7.898550000000000
C       3.146690000000000      8.649889999999999      6.237280000000000
H       0.382740000000000     10.347379999999999      7.554000000000000
H       2.119310000000000     10.510630000000001      8.009720000000000
H       1.580720000000000     10.978070000000001      6.364350000000000
H       1.635170000000000      6.796770000000000      7.610090000000000
H       2.140670000000000      8.095980000000001      8.739240000000001
H       0.410970000000000      7.934140000000000      8.270989999999999
H       3.328490000000000      7.609160000000000      5.890450000000000
H       3.373260000000000      9.342190000000000      5.400120000000000
H       3.854480000000000      8.872090000000000      7.063940000000000

-C 0
6-31g(d,p)
****
-H 0
6-31g(d,p)
****
-Mg 0
6-31g(d,p)
****
-N 0
6-31+g(d,p)
****
-Na 0
6-31g(d,p)
****
-O 0
6-31+g(d,p)
****


