%chk=lowest10_c1_a2_speciation0_speciationDFT0_speciationDFT37b_rank02_E164.12.chk
%nprocshared=20
%mem=40GB
#p opt=loose PM7/gen scf=xqc 

lowest10_c1_a2_speciation0_speciationDFT0_speciationDFT37b_rank02_E164.12 DFT input

0 1
Mg     -0.106570000000000      0.353700000000000     -0.336980000000000
C      -3.117210000000000     -0.504870000000000      0.256430000000000
C      -2.866190000000000      1.865980000000000      0.323570000000000
O      -2.327940000000000      0.601790000000000      0.646680000000000
C      -3.381730000000000     -0.587950000000000     -1.246490000000000
C      -4.065730000000000      2.207030000000000      1.192080000000000
H      -2.527120000000000     -1.401210000000000      0.519320000000000
H      -4.044540000000000     -0.586060000000000      0.857280000000000
H      -2.068470000000000      2.609320000000000      0.542150000000000
H      -3.084340000000000      1.982170000000000     -0.757960000000000
H      -3.805130000000000      2.053580000000000      2.260490000000000
H      -4.347990000000000      3.268060000000000      1.032250000000000
H      -4.926690000000000      1.564040000000000      0.920270000000000
H      -2.447380000000000     -0.415000000000000     -1.816550000000000
H      -3.768990000000000     -1.598450000000000     -1.494060000000000
H      -4.142670000000000      0.158150000000000     -1.548850000000000
H       0.120420000000000      0.770570000000000     -2.886810000000000
C       0.844700000000000      2.584130000000000     -1.915470000000000
C      -0.167180000000000      1.468260000000000     -2.075350000000000
C       2.211760000000000      2.020470000000000     -1.510890000000000
H       0.907050000000000      3.118470000000000     -2.883890000000000
H       0.499970000000000      3.287140000000000     -1.124280000000000
H       2.148260000000000      1.586130000000000     -0.491380000000000
H       2.523450000000000      1.217050000000000     -2.211020000000000
C       3.273760000000000      3.112710000000000     -1.530760000000000
H      -1.185380000000000      1.867080000000000     -2.255290000000000
H       3.373230000000000      3.510020000000000     -2.563580000000000
H       3.000360000000000      3.941290000000000     -0.843920000000000
H       4.252310000000000      2.691750000000000     -1.218030000000000
C       2.756890000000000      0.861480000000000      2.107920000000000
C       1.555770000000000      1.531530000000000      2.241470000000000
C       0.560060000000000      0.578260000000000      2.155700000000000
C       1.169900000000000     -0.586600000000000      1.951520000000000
N       2.560360000000000     -0.397490000000000      1.945700000000000
C       0.512990000000000     -1.928300000000000      1.739340000000000
N      -0.164680000000000     -1.996650000000000      0.432540000000000
C       0.511360000000000     -2.728400000000000     -0.667080000000000
H       1.420740000000000      2.601130000000000      2.355790000000000
H       3.738280000000000      1.307760000000000      2.119410000000000
H      -0.500350000000000      0.757470000000000      2.220670000000000
H      -0.238380000000000     -2.087630000000000      2.541790000000000
H       1.275920000000000     -2.715540000000000      1.842320000000000
C       0.666900000000000     -4.220280000000000     -0.313270000000000
C      -0.387110000000000     -2.627610000000000     -1.916950000000000
C       1.884390000000000     -2.112980000000000     -1.012420000000000
H      -0.315480000000000     -4.645910000000000     -0.017690000000000
H       1.049310000000000     -4.787450000000000     -1.189210000000000
H       1.389210000000000     -4.382030000000000      0.509480000000000
H      -0.491830000000000     -1.572020000000000     -2.241570000000000
H       0.041860000000000     -3.197270000000000     -2.770930000000000
H      -1.402250000000000     -3.027090000000000     -1.705390000000000
H       1.771860000000000     -1.071500000000000     -1.381730000000000
H       2.555220000000000     -2.103620000000000     -0.132080000000000
H       2.385820000000000     -2.704910000000000     -1.809500000000000
Na     -0.849770000000000     -2.500190000000000      8.811950000000000
C      -2.942670000000000     -1.740220000000000     11.185589999999999
C      -3.546520000000000     -3.728340000000000     10.189920000000001
O      -3.187600000000000     -2.383740000000000      9.953230000000000
C      -2.562510000000000     -0.289370000000000     10.924759999999999
C      -3.795730000000000     -4.420790000000000      8.857430000000001
H      -3.857080000000000     -1.742120000000000     11.821759999999999
H      -2.093510000000000     -2.222690000000000     11.721090000000000
H      -2.723630000000000     -4.273630000000000     10.706040000000000
H      -4.486840000000000     -3.786080000000000     10.784350000000000
H      -2.875630000000000     -4.396990000000000      8.235460000000000
H      -4.082510000000000     -5.479430000000000      9.032570000000000
H      -4.618310000000000     -3.911960000000000      8.310910000000000
H      -3.389300000000000      0.234450000000000     10.399570000000001
H      -2.366530000000000      0.226490000000000     11.888750000000000
H      -1.646010000000000     -0.240480000000000     10.299160000000001
Na     -5.423180000000000     -1.276680000000000      9.104179999999999
Mg      0.167510000000000     -6.217260000000000      5.444720000000000
H      -0.777640000000000     -8.260009999999999      3.238510000000000
C       1.387380000000000     -8.354270000000000      2.913500000000000
C       0.117270000000000     -7.606880000000000      3.284390000000000
C       1.658960000000000     -9.561140000000000      3.822710000000000
H       1.280320000000000     -8.708580000000000      1.867130000000000
H       2.250210000000000     -7.656290000000000      2.959930000000000
H       0.806650000000000    -10.273560000000000      3.776950000000000
H       2.564280000000000    -10.074339999999999      3.435360000000000
C       1.923150000000000     -9.178450000000000      5.280590000000000
H      -0.019880000000000     -6.723330000000000      2.624050000000000
H       1.017190000000000     -8.741740000000000      5.747060000000000
H       2.203330000000000    -10.090050000000000      5.851560000000000
H       2.760810000000000     -8.451860000000000      5.349320000000000
C      -1.129060000000000     -7.731680000000000      7.919610000000000
C      -0.972280000000000     -7.564250000000000      9.285769999999999
C      -0.054490000000000     -6.540380000000000      9.465150000000000
C       0.324340000000000     -6.141860000000000      8.202220000000001
N      -0.339200000000000     -6.853080000000000      7.281250000000000
C       1.322920000000000     -5.062500000000000      7.828590000000000
N       1.615370000000000     -5.134520000000000      6.381220000000000
C       2.593580000000000     -4.224900000000000      5.758340000000000
H      -1.472120000000000     -8.122620000000000     10.065640000000000
H      -1.778990000000000     -8.445110000000000      7.429840000000000
H       0.304760000000000     -6.143790000000000     10.404669999999999
H       0.883520000000000     -4.081680000000000      8.099110000000000
H       2.253400000000000     -5.235490000000000      8.400720000000000
C       3.998630000000000     -4.507880000000000      6.325920000000000
C       2.618250000000000     -4.494150000000000      4.243070000000000
C       2.208600000000000     -2.754160000000000      5.997060000000000
H       4.277230000000000     -5.569950000000000      6.147100000000000
H       4.758690000000000     -3.858970000000000      5.841250000000000
H       4.041640000000000     -4.315340000000000      7.416950000000000
H       1.622440000000000     -4.298360000000000      3.791950000000000
H       3.364200000000000     -3.838770000000000      3.740210000000000
H       2.893080000000000     -5.550200000000000      4.037300000000000
H       1.196700000000000     -2.547680000000000      5.587480000000000
H       2.212550000000000     -2.512350000000000      7.079870000000000
H       2.936650000000000     -2.077090000000000      5.499910000000000

-C 0
6-31g(d,p)
****
-H 0
6-31g(d,p)
****
-Mg 0
6-31g(d,p)
****
-N 0
6-31+g(d,p)
****
-Na 0
6-31g(d,p)
****
-O 0
6-31+g(d,p)
****


