%chk=lowest10_c1_a2_speciation0_speciationDFT0_speciationDFT1_rank04_E178.44.chk
%nprocshared=20
%mem=40GB
#p opt=loose PM7/gen scf=xqc 

lowest10_c1_a2_speciation0_speciationDFT0_speciationDFT1_rank04_E178.44 DFT input

0 1
Mg      0.488020000000000     -0.410960000000000     -0.384470000000000
H      -0.374550000000000     -2.444210000000000     -2.411230000000000
C      -1.517410000000000     -3.135610000000000     -0.672620000000000
C      -0.260980000000000     -2.585870000000000     -1.317030000000000
C      -1.801500000000000     -4.523680000000000     -1.232420000000000
H      -1.370150000000000     -3.187020000000000      0.428410000000000
H      -2.364880000000000     -2.447250000000000     -0.885400000000000
H      -1.933190000000000     -4.452840000000000     -2.334220000000000
H      -0.937420000000000     -5.188810000000000     -1.014130000000000
C      -3.057510000000000     -5.120190000000000     -0.616810000000000
H       0.634860000000000     -3.192910000000000     -1.069600000000000
H      -2.938090000000000     -5.214690000000000      0.483460000000000
H      -3.935790000000000     -4.477620000000000     -0.839050000000000
H      -3.228390000000000     -6.127520000000000     -1.049360000000000
C       2.278210000000000      1.334530000000000     -2.336970000000000
C       2.696700000000000      2.653340000000000     -2.258410000000000
C       2.165250000000000      3.174410000000000     -1.088880000000000
C       1.438290000000000      2.160820000000000     -0.510610000000000
N       1.516970000000000      1.056810000000000     -1.268300000000000
C       0.661170000000000      2.206500000000000      0.790790000000000
N      -0.133720000000000      0.973080000000000      0.957060000000000
C      -1.010150000000000      0.790120000000000      2.128290000000000
H       3.321840000000000      3.176520000000000     -2.967950000000000
H       2.522010000000000      0.629630000000000     -3.123210000000000
H       2.286290000000000      4.177910000000000     -0.704520000000000
H      -0.015110000000000      3.080040000000000      0.761180000000000
H       1.397170000000000      2.310690000000000      1.613960000000000
C      -2.152970000000000      1.822060000000000      2.081820000000000
C      -1.625040000000000     -0.620780000000000      2.080420000000000
C      -0.211050000000000      0.937070000000000      3.435400000000000
H      -2.739330000000000      1.702520000000000      1.144110000000000
H      -2.837310000000000      1.692880000000000      2.946430000000000
H      -1.762240000000000      2.858620000000000      2.118130000000000
H      -0.833520000000000     -1.398770000000000      2.128340000000000
H      -2.314030000000000     -0.775950000000000      2.941060000000000
H      -2.207100000000000     -0.765500000000000      1.145250000000000
H       0.620760000000000      0.201220000000000      3.460960000000000
H       0.213180000000000      1.957340000000000      3.530440000000000
H      -0.866990000000000      0.763680000000000      4.315460000000000
Na     -1.348250000000000      0.376920000000000     10.328680000000000
C      -3.442400000000000      1.136340000000000     12.703130000000000
C      -4.046130000000000     -0.851760000000000     11.707470000000001
O      -3.687290000000000      0.492830000000000     11.470789999999999
C      -3.062290000000000      2.587120000000000     12.442140000000000
C      -4.295220000000000     -1.544060000000000     10.374919999999999
H      -4.356820000000000      1.134450000000000     13.339280000000000
H      -2.593220000000000      0.653910000000000     13.238650000000000
H      -3.223220000000000     -1.397020000000000     12.223599999999999
H      -4.986470000000000     -0.909570000000000     12.301860000000000
H      -3.375060000000000     -1.520050000000000      9.753040000000000
H      -4.581930000000000     -2.602730000000000     10.549920000000000
H      -5.117780000000000     -1.035150000000000      9.828469999999999
H      -3.889120000000000      3.110790000000000     11.916850000000000
H      -2.866310000000000      3.103100000000000     13.406050000000000
H      -2.145810000000000      2.635890000000000     11.816480000000000
Na     -5.924360000000000      1.600750000000000     10.621050000000000
Mg     -0.332200000000000     -3.339760000000000      6.962540000000000
H      -1.277670000000000     -5.385720000000000      4.753230000000000
C       0.887400000000000     -5.478290000000000      4.429650000000000
C      -0.383470000000000     -4.731700000000000      4.800250000000000
C       1.159400000000000     -6.684800000000000      5.339260000000000
H       0.780930000000000     -5.832790000000000      3.383240000000000
H       1.749860000000000     -4.779860000000000      4.476390000000000
H       0.307340000000000     -7.397480000000000      5.293460000000000
H       2.065060000000000     -7.197990000000000      4.952590000000000
C       1.422830000000000     -6.301180000000000      6.797040000000000
H      -0.521270000000000     -3.848240000000000      4.139920000000000
H       0.517010000000000     -5.862850000000000      7.262240000000000
H       1.701380000000000     -7.212530000000000      7.369190000000000
H       2.261300000000000     -5.575510000000000      6.865750000000000
C      -1.629410000000000     -4.853630000000000      9.437020000000000
C      -1.472860000000000     -4.687030000000000     10.803419999999999
C      -0.554550000000000     -3.663760000000000     10.983200000000000
C      -0.175100000000000     -3.264810000000000      9.720780000000000
N      -0.839320000000000     -3.975580000000000      8.799149999999999
C       0.824200000000000     -2.186490000000000      9.347510000000000
N       1.116280000000000     -2.258390000000000      7.900220000000000
C       2.093980000000000     -1.348790000000000      7.277120000000000
H      -1.973010000000000     -5.245470000000000     11.582879999999999
H      -2.279710000000000     -5.566690000000000      8.946880000000000
H      -0.195130000000000     -3.267740000000000     11.923080000000001
H       0.386120000000000     -1.205190000000000      9.618770000000000
H       1.754840000000000     -2.360710000000000      9.919169999999999
C       3.499350000000000     -1.630950000000000      7.844090000000000
C       2.118040000000000     -1.619090000000000      5.762270000000000
C       1.708560000000000      0.121860000000000      7.515600000000000
H       3.778090000000000     -2.693020000000000      7.665700000000000
H       4.258910000000000     -0.982170000000000      7.358370000000000
H       3.542800000000000     -1.437510000000000      8.934920000000000
H       1.121580000000000     -1.424830000000000      5.312120000000000
H       2.863200000000000     -0.963550000000000      5.258570000000000
H       2.393480000000000     -2.675060000000000      5.556980000000000
H       0.696480000000000      0.327950000000000      7.106220000000000
H       1.712760000000000      0.364250000000000      8.598250000000000
H       2.436490000000000      0.798880000000000      7.018300000000000

-C 0
6-31g(d,p)
****
-H 0
6-31g(d,p)
****
-Mg 0
6-31g(d,p)
****
-N 0
6-31+g(d,p)
****
-Na 0
6-31g(d,p)
****
-O 0
6-31+g(d,p)
****


