%chk=lowest10_c1_a2_speciation0_speciationDFT38_speciationDFT38_rank08_E180.08.chk
%nprocshared=20
%mem=40GB
#p opt=loose PM7/gen scf=xqc 

lowest10_c1_a2_speciation0_speciationDFT38_speciationDFT38_rank08_E180.08 DFT input

0 1
Mg      0.030940000000000      0.956840000000000     -0.134070000000000
C      -1.717770000000000     -1.742630000000000     -0.860660000000000
C       0.261910000000000     -1.658400000000000     -2.202960000000000
O      -0.635110000000000     -0.973900000000000     -1.355210000000000
C      -1.339370000000000     -3.095110000000000     -0.252490000000000
C      -0.369630000000000     -2.034310000000000     -3.534520000000000
H      -2.160030000000000     -1.148130000000000     -0.037270000000000
H      -2.509770000000000     -1.849450000000000     -1.629140000000000
H       1.093450000000000     -0.959870000000000     -2.416500000000000
H       0.743250000000000     -2.520020000000000     -1.699770000000000
H       0.412630000000000     -2.453560000000000     -4.200580000000000
H      -0.811670000000000     -1.136190000000000     -4.013450000000000
H      -1.158860000000000     -2.796100000000000     -3.382050000000000
H      -0.542800000000000     -2.975080000000000      0.500450000000000
H      -1.006620000000000     -3.801980000000000     -1.038860000000000
H      -2.222700000000000     -3.530060000000000      0.256360000000000
H      -0.825040000000000      2.491820000000000     -2.142600000000000
C       1.295650000000000      3.027760000000000     -1.982490000000000
C      -0.068880000000000      2.691790000000000     -1.357020000000000
C       1.938680000000000      1.897050000000000     -2.810050000000000
H       1.173900000000000      3.923770000000000     -2.625940000000000
H       2.003210000000000      3.276540000000000     -1.162750000000000
H       2.912020000000000      2.265130000000000     -3.206270000000000
H       2.155980000000000      1.029470000000000     -2.154980000000000
C       1.091520000000000      1.445300000000000     -3.999520000000000
H      -0.413450000000000      3.529890000000000     -0.721260000000000
H       0.128610000000000      1.023520000000000     -3.652970000000000
H       0.894310000000000      2.295750000000000     -4.684380000000000
H       1.631290000000000      0.653020000000000     -4.563530000000000
C       2.782310000000000     -1.839750000000000      0.217810000000000
C       3.076200000000000     -0.497430000000000      0.241840000000000
C       2.159450000000000      0.116570000000000      1.077810000000000
C       1.317470000000000     -0.823770000000000      1.527290000000000
N       1.675050000000000     -2.093270000000000      1.044290000000000
C       0.110970000000000     -0.572490000000000      2.396480000000000
N      -0.804280000000000      0.332850000000000      1.692740000000000
C      -1.997780000000000      0.849040000000000      2.407910000000000
H       3.868800000000000     -0.016510000000000     -0.317860000000000
H       3.300940000000000     -2.592630000000000     -0.355960000000000
H       2.098980000000000      1.175840000000000      1.284660000000000
H       0.447430000000000     -0.143620000000000      3.358330000000000
H      -0.394590000000000     -1.545340000000000      2.576410000000000
C      -1.580340000000000      1.785300000000000      3.558740000000000
C      -2.864200000000000      1.641860000000000      1.415730000000000
C      -2.846100000000000     -0.314320000000000      2.975660000000000
H      -0.994990000000000      2.643710000000000      3.168480000000000
H      -2.477470000000000      2.177460000000000      4.086780000000000
H      -0.969840000000000      1.252800000000000      4.315490000000000
H      -3.216390000000000      0.989880000000000      0.588780000000000
H      -3.759140000000000      2.064120000000000      1.926480000000000
H      -2.284520000000000      2.481930000000000      0.979220000000000
H      -3.163420000000000     -1.003980000000000      2.164750000000000
H      -2.281570000000000     -0.898440000000000      3.731850000000000
H      -3.761980000000000      0.071660000000000      3.475330000000000
Na      9.626890000000000     -3.875860000000000      3.507840000000000
C       9.845630000000000     -2.132530000000000      6.283300000000000
C       8.417719999999999     -1.104710000000000      4.796930000000000
O       9.698680000000000     -1.675620000000000      4.955890000000000
C      11.231909999999999     -2.737800000000000      6.451560000000000
C       8.258380000000001     -0.628250000000000      3.360400000000000
H       9.754090000000000     -1.288730000000000      7.004800000000000
H       9.098010000000000     -2.925750000000000      6.513070000000000
H       7.622100000000000     -1.857730000000000      4.994420000000000
H       8.293699999999999     -0.221530000000000      5.464210000000000
H       8.364770000000000     -1.483660000000000      2.659920000000000
H       7.253140000000000     -0.175930000000000      3.224320000000000
H       9.030620000000001      0.134370000000000      3.123400000000000
H      12.010579999999999     -1.974270000000000      6.240470000000000
H      11.358870000000000     -3.101220000000000      7.493400000000000
H      11.362830000000001     -3.592700000000000      5.754610000000000
Na     11.328180000000000      0.399740000000000      4.818610000000000
Mg      3.574790000000000     -5.486620000000000      5.797890000000000
C       1.801050000000000     -8.240740000000001      5.051620000000000
C       3.783550000000000     -8.163330000000000      3.719620000000000
O       2.901070000000000     -7.477680000000000      4.585160000000000
C       2.166030000000000     -9.587360000000000      5.681780000000000
C       3.144770000000000     -8.522510000000000      2.383310000000000
H       1.330240000000000     -7.641180000000000      5.856260000000000
H       1.032530000000000     -8.355589999999999      4.260190000000000
H       4.623200000000000     -7.473090000000000      3.507050000000000
H       4.255640000000000     -9.036940000000000      4.211430000000000
H       3.919750000000000     -8.955159999999999      1.716690000000000
H       2.722670000000000     -7.614770000000000      1.904500000000000
H       2.341830000000000     -9.272800000000000      2.524510000000000
H       2.925610000000000     -9.451530000000000      6.472950000000000
H       2.543280000000000    -10.294870000000000      4.916100000000000
H       1.262720000000000    -10.034660000000001      6.143570000000000
H       2.686750000000000     -3.922510000000000      3.787450000000000
C       4.805820000000000     -3.401120000000000      3.963310000000000
C       3.437010000000000     -3.727480000000000      4.580470000000000
C       5.443320000000000     -4.548360000000000      3.155590000000000
H       4.703220000000000     -2.506790000000000      3.312820000000000
H       5.505190000000000     -3.155910000000000      4.790370000000000
H       6.429820000000000     -4.198500000000000      2.776500000000000
H       5.629650000000000     -5.417350000000000      3.819440000000000
C       4.612180000000000     -4.993810000000000      1.952740000000000
H       3.091330000000000     -2.877330000000000      5.201510000000000
H       3.638650000000000     -5.407730000000000      2.280630000000000
H       4.438180000000000     -4.142710000000000      1.263890000000000
H       5.156140000000000     -5.790320000000000      1.399180000000000
C       6.340380000000000     -8.310480000000000      6.176900000000000
C       6.640460000000000     -6.967590000000000      6.210230000000000
C       5.714720000000000     -6.357310000000000      7.036250000000000
C       4.866410000000000     -7.291290000000000      7.474720000000000
N       5.221250000000000     -8.565060000000001      6.985840000000000
C       3.665040000000000     -7.030590000000000      8.342570000000000
N       2.746290000000000     -6.135220000000000      7.625550000000000
C       1.554330000000000     -5.611420000000000      8.335430000000001
H       7.443780000000000     -6.485310000000000      5.669470000000000
H       6.870630000000000     -9.061550000000000      5.608030000000000
H       5.656900000000000     -5.299190000000000      7.256270000000000
H       4.010000000000000     -6.581630000000000      9.293939999999999
H       3.160370000000000     -7.997970000000000      8.547910000000000
C       1.967230000000000     -4.667440000000000      9.482350000000000
C       0.692860000000000     -4.824370000000000      7.334650000000000
C       0.701980000000000     -6.769010000000000      8.907370000000000
H       2.567730000000000     -3.819300000000000      9.092480000000000
H       1.066740000000000     -4.258750000000000      9.992020000000000
H       2.560150000000000     -5.199430000000000     10.253880000000001
H       0.354980000000000     -5.479270000000000      6.504210000000000
H      -0.210560000000000     -4.410480000000000      7.836620000000000
H       1.269610000000000     -3.978940000000000      6.904650000000000
H       0.387120000000000     -7.462540000000000      8.098900000000000
H       1.262510000000000     -7.349490000000000      9.669480000000000
H      -0.214130000000000     -6.377460000000000      9.401719999999999

-C 0
6-31g(d,p)
****
-H 0
6-31g(d,p)
****
-Mg 0
6-31g(d,p)
****
-N 0
6-31+g(d,p)
****
-Na 0
6-31g(d,p)
****
-O 0
6-31+g(d,p)
****


