%chk=lowest10_c1_a2_speciation7_speciationDFT0_speciationDFT0_rank03_E218.28.chk
%nprocshared=20
%mem=40GB
#p opt=loose PM7/gen scf=xqc 

lowest10_c1_a2_speciation7_speciationDFT0_speciationDFT0_rank03_E218.28 DFT input

0 1
Mg     -0.398160000000000      0.834850000000000     -0.580770000000000
H      -3.286450000000000      1.138740000000000     -1.611590000000000
C      -3.003840000000000     -1.005200000000000     -1.998910000000000
C      -2.498250000000000      0.424210000000000     -1.921810000000000
C      -3.594400000000000     -1.513790000000000     -0.675640000000000
H      -3.790910000000000     -1.042370000000000     -2.780110000000000
H      -2.171070000000000     -1.671450000000000     -2.310010000000000
H      -4.440920000000000     -0.866770000000000     -0.357880000000000
H      -3.986760000000000     -2.534480000000000     -0.865780000000000
C      -2.575400000000000     -1.610120000000000      0.462950000000000
H      -2.052880000000000      0.734270000000000     -2.892470000000000
H      -2.240650000000000     -0.603650000000000      0.785530000000000
H      -3.052140000000000     -2.111860000000000      1.333290000000000
H      -1.694340000000000     -2.212770000000000      0.155130000000000
C      -0.961440000000000      1.845060000000000      2.380250000000000
C      -0.177480000000000      1.814950000000000      3.522570000000000
C       1.016690000000000      1.201940000000000      3.175760000000000
C       0.904420000000000      0.868930000000000      1.845490000000000
N      -0.284090000000000      1.271290000000000      1.373780000000000
C       1.931410000000000      0.174150000000000      0.973320000000000
N       1.312710000000000     -0.227810000000000     -0.306730000000000
C       2.081030000000000     -0.986760000000000     -1.310330000000000
H      -0.441390000000000      2.200470000000000      4.497580000000000
H      -1.956280000000000      2.264550000000000      2.295200000000000
H       1.864520000000000      1.010390000000000      3.819130000000000
H       2.766410000000000      0.885250000000000      0.804460000000000
H       2.291820000000000     -0.724100000000000      1.507050000000000
C       2.427910000000000     -2.379270000000000     -0.747550000000000
C       1.208940000000000     -1.174320000000000     -2.565320000000000
C       3.365490000000000     -0.236130000000000     -1.704120000000000
H       1.495950000000000     -2.921770000000000     -0.476580000000000
H       2.983130000000000     -2.982620000000000     -1.496430000000000
H       3.064040000000000     -2.306040000000000      0.157210000000000
H       0.943730000000000     -0.193300000000000     -3.014210000000000
H       1.750840000000000     -1.772080000000000     -3.332290000000000
H       0.269360000000000     -1.709850000000000     -2.313850000000000
H       3.117500000000000      0.768640000000000     -2.108460000000000
H       4.038690000000000     -0.113780000000000     -0.830940000000000
H       3.923560000000000     -0.802590000000000     -2.480710000000000
Na     -1.615180000000000    -12.432940000000000     -1.287070000000000
C      -3.327600000000000    -14.167249999999999      0.781040000000000
C      -1.962430000000000    -12.803260000000000      2.115150000000000
O      -2.071490000000000    -13.528219999999999      0.904790000000000
C      -4.337370000000000    -13.250769999999999      0.097620000000000
C      -1.393680000000000    -13.675979999999999      3.230990000000000
H      -3.189780000000000    -15.068490000000001      0.146780000000000
H      -3.722380000000000    -14.533840000000000      1.755380000000000
H      -1.263970000000000    -11.957020000000000      1.940950000000000
H      -2.927570000000000    -12.348360000000000      2.431030000000000
H      -0.390830000000000    -14.060129999999999      2.951650000000000
H      -1.294020000000000    -13.071600000000000      4.156260000000000
H      -2.065730000000000    -14.534070000000000      3.438380000000000
H      -3.965520000000000    -12.950279999999999     -0.904170000000000
H      -5.301330000000000    -13.786930000000000     -0.024910000000000
H      -4.512960000000000    -12.340430000000000      0.706160000000000
C      -2.848750000000000     -9.507059999999999     -0.138560000000000
C      -1.781320000000000     -9.239480000000000     -2.252600000000000
O      -2.024050000000000    -10.079950000000000     -1.137840000000000
C      -4.267800000000000     -9.193140000000000     -0.614890000000000
C      -1.007250000000000     -7.968850000000000     -1.902370000000000
H      -2.942570000000000    -10.267760000000001      0.664550000000000
H      -2.367630000000000     -8.629510000000000      0.339820000000000
H      -1.143160000000000     -9.821310000000000     -2.951850000000000
H      -2.710780000000000     -9.018310000000000     -2.816770000000000
H      -0.073440000000000     -8.232250000000001     -1.363720000000000
H      -0.745460000000000     -7.429710000000000     -2.836720000000000
H      -1.620590000000000     -7.286190000000000     -1.280290000000000
H      -4.731190000000000    -10.098850000000001     -1.059750000000000
H      -4.878900000000000     -8.864720000000000      0.251850000000000
H      -4.267910000000000     -8.369100000000000     -1.356560000000000
Na     -0.101760000000000    -14.894510000000000      0.778840000000000
C       0.551190000000000    -14.204409999999999     -2.418920000000000
C       1.674740000000000    -12.769010000000000     -0.950490000000000
O       0.530600000000000    -13.573110000000000     -1.155220000000000
C      -0.490830000000000    -15.315950000000001     -2.426280000000000
C       1.556920000000000    -11.420130000000000     -1.656990000000000
H       0.281910000000000    -13.476820000000000     -3.214270000000000
H       1.536640000000000    -14.673190000000000     -2.638860000000000
H       1.747380000000000    -12.573790000000001      0.141030000000000
H       2.615050000000000    -13.293329999999999     -1.230940000000000
H       0.642210000000000    -10.891330000000000     -1.318510000000000
H       2.441490000000000    -10.796060000000001     -1.410820000000000
H       1.518660000000000    -11.552890000000000     -2.757490000000000
H      -1.498320000000000    -14.900410000000001     -2.209910000000000
H      -0.511930000000000    -15.808140000000000     -3.421320000000000
H      -0.243680000000000    -16.077030000000001     -1.657040000000000
C       1.862160000000000    -17.562860000000001      0.630840000000000
C      -0.312580000000000    -18.240649999999999      1.042600000000000
O       0.519600000000000    -17.152010000000001      0.723700000000000
C       2.712320000000000    -16.339410000000001      0.315700000000000
C      -1.748770000000000    -17.737980000000000      1.100180000000000
H       2.216410000000000    -17.988859999999999      1.596650000000000
H       1.992460000000000    -18.296180000000000     -0.196380000000000
H      -0.254390000000000    -19.027619999999999      0.257250000000000
H      -0.051770000000000    -18.658590000000000      2.041020000000000
H      -2.039700000000000    -17.313649999999999      0.115420000000000
H      -2.436550000000000    -18.572250000000000      1.350250000000000
H      -1.844660000000000    -16.945979999999999      1.874310000000000
H       2.606130000000000    -15.582260000000000      1.122450000000000
H       3.780440000000000    -16.626840000000001      0.227620000000000
H       2.382380000000000    -15.888059999999999     -0.642850000000000
Mg      3.071780000000000     -9.553950000000000      2.318760000000000
H       5.616520000000000    -11.393200000000000      1.849050000000000
C       6.615930000000000     -9.527540000000000      2.412420000000000
C       5.481710000000000    -10.296530000000001      1.754060000000000
C       6.754570000000000     -9.837479999999999      3.909270000000000
H       7.559870000000000     -9.803890000000001      1.897830000000000
H       6.448960000000000     -8.437930000000000      2.275450000000000
H       6.931190000000000    -10.924939999999999      4.058400000000000
H       7.640570000000000     -9.284730000000000      4.287180000000000
C       5.540760000000000     -9.401820000000001      4.732660000000000
H       5.393860000000000    -10.015710000000000      0.682480000000000
H       4.640230000000000     -9.983320000000001      4.449700000000000
H       5.746870000000000     -9.581140000000000      5.809920000000000
H       5.340190000000000     -8.318379999999999      4.589970000000000
C       1.732010000000000    -11.370850000000001      4.555100000000000
C       0.686510000000000    -11.132280000000000      5.432040000000000
C       0.249840000000000     -9.837160000000001      5.198020000000000
C       1.060760000000000     -9.334420000000000      4.204430000000000
N       1.937480000000000    -10.269940000000000      3.814600000000000
C       1.022840000000000     -7.950380000000000      3.583930000000000
N       2.222890000000000     -7.751000000000000      2.743680000000000
C       2.463880000000000     -6.471440000000000      2.053670000000000
H       0.283680000000000    -11.824479999999999      6.158930000000000
H       2.299080000000000    -12.288309999999999      4.465670000000000
H      -0.553930000000000     -9.318980000000000      5.702930000000000
H       0.093250000000000     -7.869270000000000      2.983210000000000
H       1.018480000000000     -7.202850000000000      4.399450000000000
C       2.680890000000000     -5.352810000000000      3.091830000000000
C       3.743930000000000     -6.605010000000000      1.209690000000000
C       1.288950000000000     -6.116330000000000      1.126480000000000
H       3.533410000000000     -5.609450000000000      3.758860000000000
H       2.905740000000000     -4.387170000000000      2.590370000000000
H       1.779620000000000     -5.202190000000000      3.719720000000000
H       3.629460000000000     -7.400250000000000      0.442310000000000
H       3.972020000000000     -5.648090000000000      0.689130000000000
H       4.611630000000000     -6.862980000000000      1.853190000000000
H       1.133420000000000     -6.920340000000000      0.377120000000000
H       0.351720000000000     -5.978780000000000      1.703820000000000
H       1.494050000000000     -5.166400000000000      0.588970000000000

-C 0
6-31g(d,p)
****
-H 0
6-31g(d,p)
****
-Mg 0
6-31g(d,p)
****
-N 0
6-31+g(d,p)
****
-Na 0
6-31g(d,p)
****
-O 0
6-31+g(d,p)
****


