%chk=lowest10_c1_a2_speciation0_speciationDFT2_speciationDFT96_rank06_E187.12.chk
%nprocshared=20
%mem=40GB
#p opt=loose PM7/gen scf=xqc 

lowest10_c1_a2_speciation0_speciationDFT2_speciationDFT96_rank06_E187.12 DFT input

0 1
Mg     -0.162620000000000     -0.205330000000000     -0.383270000000000
C       3.270630000000000     -0.140710000000000     -1.011370000000000
C       2.308950000000000      2.017320000000000     -0.670890000000000
O       2.176530000000000      0.615820000000000     -0.527460000000000
C       4.560300000000000      0.078740000000000     -0.227340000000000
C       2.376800000000000      2.480080000000000     -2.123840000000000
H       2.988310000000000     -1.208780000000000     -0.888690000000000
H       3.434120000000000      0.003070000000000     -2.096280000000000
H       1.387870000000000      2.463350000000000     -0.246050000000000
H       3.137850000000000      2.422530000000000     -0.056020000000000
H       1.529580000000000      2.055650000000000     -2.701280000000000
H       2.312010000000000      3.587670000000000     -2.155330000000000
H       3.335900000000000      2.178850000000000     -2.588830000000000
H       4.391390000000000     -0.086220000000000      0.855730000000000
H       5.325140000000000     -0.642720000000000     -0.584020000000000
H       4.947660000000000      1.103210000000000     -0.392980000000000
H       0.719020000000000     -2.406430000000000     -2.149980000000000
C       0.632450000000000     -0.793030000000000     -3.637820000000000
C       0.090830000000000     -1.538380000000000     -2.437830000000000
C       0.621460000000000     -1.711440000000000     -4.847000000000000
H       0.005540000000000      0.101120000000000     -3.833670000000000
H       1.665060000000000     -0.455550000000000     -3.423740000000000
H       1.249740000000000     -2.603340000000000     -4.632450000000000
H      -0.422300000000000     -2.040080000000000     -5.043630000000000
C       1.164810000000000     -0.995210000000000     -6.072710000000000
H      -0.976600000000000     -1.814940000000000     -2.561820000000000
H       0.540350000000000     -0.106070000000000     -6.304650000000000
H       2.212400000000000     -0.671270000000000     -5.893550000000000
H       1.142190000000000     -1.690090000000000     -6.936230000000000
C      -1.885010000000000     -0.887110000000000      4.115840000000000
C      -3.126520000000000     -0.468610000000000      3.689800000000000
C      -2.913880000000000      0.543860000000000      2.766710000000000
C      -1.595610000000000      0.683620000000000      2.652480000000000
N      -0.965920000000000     -0.218460000000000      3.524260000000000
C      -0.811520000000000      1.672280000000000      1.810880000000000
N      -0.895180000000000      1.507790000000000      0.348300000000000
C      -2.012610000000000      1.970850000000000     -0.486440000000000
H      -4.079450000000000     -0.853480000000000      4.030860000000000
H      -1.677110000000000     -1.660860000000000      4.840750000000000
H      -3.684220000000000      1.103490000000000      2.266700000000000
H       0.258260000000000      1.514600000000000      2.067480000000000
H      -1.046030000000000      2.707710000000000      2.104940000000000
C      -2.688620000000000      3.200410000000000      0.125030000000000
C      -1.426800000000000      2.366290000000000     -1.856640000000000
C      -3.014980000000000      0.823690000000000     -0.728840000000000
H      -1.929960000000000      3.999470000000000      0.275680000000000
H      -3.483980000000000      3.580620000000000     -0.546290000000000
H      -3.143410000000000      2.953830000000000      1.101660000000000
H      -0.911970000000000      1.502260000000000     -2.322530000000000
H      -2.224970000000000      2.702870000000000     -2.552960000000000
H      -0.681500000000000      3.182960000000000     -1.750620000000000
H      -2.531830000000000     -0.021130000000000     -1.268600000000000
H      -3.421570000000000      0.415530000000000      0.206590000000000
H      -3.866060000000000      1.179080000000000     -1.347990000000000
C      -0.038960000000000     -2.674560000000000      1.580540000000000
C       1.747030000000000     -1.227790000000000      2.112870000000000
O       0.853860000000000     -1.681480000000000      1.115710000000000
C      -1.411350000000000     -2.490100000000000      0.928780000000000
C       2.862920000000000     -2.227030000000000      2.341730000000000
H       0.357760000000000     -3.666990000000000      1.286880000000000
H      -0.184650000000000     -2.654400000000000      2.681960000000000
H       2.188310000000000     -0.271410000000000      1.768800000000000
H       1.249680000000000     -0.979850000000000      3.066240000000000
H       3.384600000000000     -2.433280000000000      1.384620000000000
H       3.582180000000000     -1.807110000000000      3.074540000000000
H       2.438340000000000     -3.167940000000000      2.746120000000000
H      -1.854830000000000     -1.514440000000000      1.197110000000000
H      -1.338510000000000     -2.535820000000000     -0.176200000000000
H      -2.101070000000000     -3.288120000000000      1.272350000000000
Na     -2.809610000000000      1.668420000000000      6.875160000000000
C      -1.709840000000000      4.641690000000000      6.031980000000000
C      -3.792820000000000      4.798930000000000      7.002910000000000
O      -3.030310000000000      4.142820000000000      6.012740000000000
C      -0.896580000000000      3.939050000000000      4.955420000000000
C      -5.211330000000000      4.246190000000000      6.989470000000000
H      -1.695190000000000      5.733200000000000      5.809120000000000
H      -1.224410000000000      4.435910000000000      7.012560000000000
H      -3.367460000000000      4.616150000000000      8.016060000000000
H      -3.851620000000000      5.891700000000000      6.795580000000000
H      -5.199700000000000      3.156380000000000      7.204010000000000
H      -5.820690000000000      4.757500000000000      7.764770000000000
H      -5.679140000000000      4.415850000000000      5.996420000000000
H      -1.346320000000000      4.131900000000000      3.959510000000000
H       0.145420000000000      4.323650000000000      4.959930000000000
H      -0.877230000000000      2.843730000000000      5.141470000000000
Na     -4.027860000000000      5.054760000000000      3.752860000000000
Mg      3.155140000000000      6.219120000000000      6.146470000000000
H       6.200330000000000      6.338950000000000      5.741500000000000
C       5.499320000000000      7.137250000000000      3.820490000000000
C       5.430640000000000      6.139170000000000      4.968620000000000
C       5.176850000000000      8.580069999999999      4.242820000000000
H       6.510170000000000      7.086890000000000      3.364980000000000
H       4.752120000000000      6.834950000000000      3.054970000000000
H       5.259130000000000      9.222619999999999      3.339190000000000
H       4.133160000000000      8.644620000000000      4.617270000000000
C       6.118060000000000      9.130100000000001      5.313460000000000
H       5.540180000000000      5.099480000000000      4.598300000000000
H       5.994100000000000      8.576219999999999      6.267160000000000
H       7.173270000000000      9.060549999999999      4.976200000000000
H       5.872580000000000     10.195940000000000      5.506630000000000
C       1.180270000000000      8.404949999999999      4.959060000000000
C       0.045670000000000      9.001200000000001      5.483850000000000
C      -0.137320000000000      8.475140000000000      6.753750000000000
C       0.903990000000000      7.596850000000000      6.956810000000000
N       1.681320000000000      7.551560000000000      5.866820000000000
C       1.186890000000000      6.760530000000000      8.190770000000001
N       2.530230000000000      6.152180000000000      8.082890000000001
C       3.062070000000000      5.293870000000000      9.156459999999999
H      -0.581710000000000      9.734489999999999      4.995600000000000
H       1.604780000000000      8.582450000000000      3.979410000000000
H      -0.928040000000000      8.714449999999999      7.451130000000000
H       0.398110000000000      5.984400000000000      8.262540000000000
H       1.155680000000000      7.422170000000000      9.076800000000000
C       2.122110000000000      4.106720000000000      9.432850000000000
C       4.434380000000000      4.751760000000000      8.715970000000000
C       3.256040000000000      6.128970000000000     10.437160000000000
H       1.979420000000000      3.503040000000000      8.511189999999999
H       2.547860000000000      3.451590000000000     10.223570000000000
H       1.131070000000000      4.456060000000000      9.788270000000001
H       5.137700000000000      5.585150000000000      8.500890000000000
H       4.880730000000000      4.119810000000000      9.516140000000000
H       4.337670000000000      4.132380000000000      7.798710000000000
H       3.940420000000000      6.982830000000000     10.237539999999999
H       2.291670000000000      6.533630000000000     10.805540000000001
H       3.693600000000000      5.510850000000000     11.249760000000000

-C 0
6-31g(d,p)
****
-H 0
6-31g(d,p)
****
-Mg 0
6-31g(d,p)
****
-N 0
6-31+g(d,p)
****
-Na 0
6-31g(d,p)
****
-O 0
6-31+g(d,p)
****


