%chk=lowest10_c1_a2_speciation0_speciationDFT36_speciationDFT37b_rank10_E165.48.chk
%nprocshared=20
%mem=40GB
#p opt=loose PM7/gen scf=xqc 

lowest10_c1_a2_speciation0_speciationDFT36_speciationDFT37b_rank10_E165.48 DFT input

0 1
Mg     -0.361480000000000      0.362880000000000     -0.067180000000000
C       1.962210000000000      2.501000000000000      0.379420000000000
C       0.860730000000000      2.844880000000000     -1.707820000000000
O       1.381320000000000      1.923420000000000     -0.773700000000000
C       1.002540000000000      3.359350000000000      1.203520000000000
C       1.963980000000000      3.592820000000000     -2.438110000000000
H       2.254520000000000      1.653030000000000      1.024460000000000
H       2.910860000000000      3.024650000000000      0.148460000000000
H       0.304010000000000      2.245000000000000     -2.460790000000000
H       0.108350000000000      3.531350000000000     -1.268000000000000
H       2.700640000000000      2.866110000000000     -2.840850000000000
H       1.525220000000000      4.172520000000000     -3.276260000000000
H       2.470170000000000      4.294850000000000     -1.745680000000000
H       0.034130000000000      2.838500000000000      1.340200000000000
H       1.448440000000000      3.551640000000000      2.201990000000000
H       0.830520000000000      4.334930000000000      0.707850000000000
H      -2.569910000000000      1.375280000000000      0.845760000000000
C      -2.987350000000000      0.780190000000000     -1.210460000000000
C      -2.118650000000000      1.447080000000000     -0.163820000000000
C      -3.123130000000000     -0.719720000000000     -0.924150000000000
H      -3.976420000000000      1.278860000000000     -1.189880000000000
H      -2.525470000000000      0.911660000000000     -2.214670000000000
H      -2.138220000000000     -1.214360000000000     -1.056200000000000
H      -3.457400000000000     -0.887020000000000      0.121350000000000
C      -4.140560000000000     -1.358630000000000     -1.861090000000000
H      -1.917600000000000      2.506550000000000     -0.419440000000000
H      -5.137360000000000     -0.898620000000000     -1.690060000000000
H      -3.846380000000000     -1.212430000000000     -2.921820000000000
H      -4.212670000000000     -2.446690000000000     -1.652530000000000
C      -0.205620000000000     -3.056970000000000     -1.778620000000000
C       0.224380000000000     -1.900230000000000     -2.388450000000000
C       1.066200000000000     -1.255870000000000     -1.500030000000000
C       1.127450000000000     -1.982140000000000     -0.377540000000000
N       0.364680000000000     -3.160770000000000     -0.501750000000000
C       1.885640000000000     -1.633490000000000      0.876680000000000
N       1.264710000000000     -0.500860000000000      1.586420000000000
C       0.417610000000000     -0.796210000000000      2.768230000000000
H      -0.067720000000000     -1.559490000000000     -3.373540000000000
H      -0.889720000000000     -3.777550000000000     -2.202250000000000
H       1.564040000000000     -0.316300000000000     -1.684570000000000
H       2.926960000000000     -1.359030000000000      0.602980000000000
H       1.941390000000000     -2.529480000000000      1.514640000000000
C       1.249320000000000     -1.457270000000000      3.884510000000000
C      -0.116060000000000      0.546870000000000      3.305910000000000
C      -0.793250000000000     -1.682980000000000      2.406440000000000
H       2.146480000000000     -0.841280000000000      4.106280000000000
H       0.645710000000000     -1.551870000000000      4.812730000000000
H       1.574560000000000     -2.479840000000000      3.613900000000000
H      -0.762620000000000      1.042120000000000      2.552970000000000
H      -0.727150000000000      0.398680000000000      4.222890000000000
H       0.722020000000000      1.234670000000000      3.550090000000000
H      -1.463570000000000     -1.167320000000000      1.686410000000000
H      -0.471250000000000     -2.644150000000000      1.962580000000000
H      -1.387550000000000     -1.918580000000000      3.316590000000000
Na     -2.707950000000000     15.264680000000000      8.586840000000000
C      -2.350210000000000     12.405099999999999      7.015920000000000
C      -1.171040000000000     12.391380000000000      8.994440000000001
O      -1.418920000000000     13.112320000000000      7.806860000000000
C      -2.602340000000000     13.181030000000000      5.730960000000000
C      -0.175620000000000     13.161560000000000      9.849760000000000
H      -1.953080000000000     11.402530000000000      6.735520000000000
H      -3.323370000000000     12.303800000000001      7.548190000000000
H      -2.106430000000000     12.269670000000000      9.587180000000000
H      -0.719820000000000     11.401339999999999      8.764370000000000
H      -0.586620000000000     14.159920000000000     10.110329999999999
H       0.026070000000000     12.600270000000000     10.786870000000000
H       0.779510000000000     13.293780000000000      9.298389999999999
H      -1.655440000000000     13.296250000000001      5.161820000000000
H      -3.336120000000000     12.635550000000000      5.100450000000000
H      -3.009240000000000     14.187620000000001      5.965900000000000
Na      0.840100000000000     12.882830000000000      6.469200000000000
Mg     -1.265140000000000      6.147290000000000      8.384190000000000
C       1.259890000000000      5.832700000000000      5.469440000000000
C       2.461950000000000      5.892860000000000      7.436860000000000
O       1.364010000000000      6.444690000000000      6.739840000000000
C       0.390080000000000      6.691160000000000      4.564350000000000
C       2.507750000000000      6.464220000000000      8.847080000000000
H       2.249710000000000      5.740780000000000      4.967610000000000
H       0.795550000000000      4.828290000000000      5.565130000000000
H       2.375020000000000      4.786810000000000      7.513180000000000
H       3.415960000000000      6.159230000000000      6.932010000000000
H       1.577890000000000      6.213950000000000      9.396720000000000
H       3.372420000000000      6.036220000000000      9.397290000000000
H       2.618200000000000      7.568050000000000      8.806200000000000
H       0.837680000000000      7.699640000000000      4.448300000000000
H       0.293670000000000      6.211830000000000      3.567910000000000
H      -0.618490000000000      6.806070000000000      4.991660000000000
H       0.441640000000000      8.625970000000001      9.763370000000000
C      -1.266000000000000      7.832210000000000     10.883609999999999
C      -0.604610000000000      8.300590000000000      9.594290000000001
C      -0.519100000000000      6.639180000000000     11.492070000000000
H      -1.271820000000000      8.682570000000000     11.596660000000000
H      -2.315600000000000      7.533810000000000     10.666290000000000
H      -0.561100000000000      5.769280000000000     10.800500000000000
H       0.545640000000000      6.908110000000000     11.660340000000000
C      -1.133340000000000      6.238450000000000     12.830159999999999
H      -1.193960000000000      9.113870000000000      9.126480000000001
H      -1.077580000000000      7.089750000000000     13.541969999999999
H      -2.195500000000000      5.940990000000000     12.699380000000000
H      -0.571860000000000      5.381930000000000     13.259380000000000
C       0.439170000000000      3.508580000000000      8.785600000000001
C       0.439420000000000      2.305290000000000      8.100669999999999
C      -0.518420000000000      2.414270000000000      7.103400000000000
C      -1.045600000000000      3.682290000000000      7.206770000000000
N      -0.461140000000000      4.326890000000000      8.229279999999999
C      -2.129790000000000      4.325550000000000      6.361010000000000
N      -2.185070000000000      5.787810000000000      6.603600000000000
C      -3.397610000000000      6.539940000000000      6.228230000000000
H       1.063480000000000      1.447950000000000      8.307410000000001
H       1.067190000000000      3.764610000000000      9.631810000000000
H      -0.788740000000000      1.658100000000000      6.378760000000000
H      -1.894340000000000      4.164550000000000      5.288540000000000
H      -3.087030000000000      3.825340000000000      6.610560000000000
C      -4.551880000000000      6.230150000000000      7.196260000000000
C      -3.081350000000000      8.047580000000000      6.314270000000000
C      -3.805890000000000      6.210690000000000      4.777580000000000
H      -4.266990000000000      6.502260000000000      8.235569999999999
H      -5.455120000000000      6.815430000000000      6.916430000000000
H      -4.824040000000000      5.156680000000000      7.173830000000000
H      -2.254680000000000      8.326219999999999      5.627600000000000
H      -3.970730000000000      8.654439999999999      6.034750000000000
H      -2.781760000000000      8.329720000000000      7.345490000000000
H      -2.966040000000000      6.430700000000000      4.082790000000000
H      -4.075870000000000      5.139540000000000      4.671810000000000
H      -4.684370000000000      6.815570000000000      4.467620000000000

-C 0
6-31g(d,p)
****
-H 0
6-31g(d,p)
****
-Mg 0
6-31g(d,p)
****
-N 0
6-31+g(d,p)
****
-Na 0
6-31g(d,p)
****
-O 0
6-31+g(d,p)
****


