%chk=lowest10_c1_a2_speciation7_speciationDFT0_speciationDFT0_rank01_E217.37.chk
%nprocshared=20
%mem=40GB
#p opt=loose PM7/gen scf=xqc 

lowest10_c1_a2_speciation7_speciationDFT0_speciationDFT0_rank01_E217.37 DFT input

0 1
Mg     -0.621040000000000     -0.807210000000000      0.669790000000000
H      -1.155780000000000     -0.471390000000000      3.703020000000000
C       0.938310000000000      0.185990000000000      3.642610000000000
C      -0.209870000000000     -0.686020000000000      3.166950000000000
C       0.659690000000000      1.688380000000000      3.491750000000000
H       1.113650000000000     -0.041090000000000      4.714550000000000
H       1.856550000000000     -0.076490000000000      3.075110000000000
H      -0.249060000000000      1.970520000000000      4.066800000000000
H       1.528470000000000      2.227340000000000      3.924000000000000
C       0.501980000000000      2.144630000000000      2.039000000000000
H       0.053180000000000     -1.761320000000000      3.261450000000000
H      -0.421750000000000      1.729060000000000      1.588300000000000
H       0.431580000000000      3.253950000000000      2.013430000000000
H       1.380360000000000      1.838130000000000      1.431750000000000
C      -2.913950000000000      1.154240000000000     -0.321910000000000
C      -3.190930000000000      1.691050000000000     -1.571100000000000
C      -2.211170000000000      1.220180000000000     -2.430690000000000
C      -1.372070000000000      0.436860000000000     -1.675390000000000
N      -1.817990000000000      0.395470000000000     -0.403740000000000
C      -0.136360000000000     -0.311240000000000     -2.124030000000000
N       0.609680000000000     -0.806540000000000     -0.949180000000000
C       1.892720000000000     -1.513440000000000     -1.109540000000000
H      -4.011790000000000      2.343550000000000     -1.827480000000000
H      -3.491070000000000      1.312490000000000      0.583810000000000
H      -2.113100000000000      1.433860000000000     -3.488750000000000
H      -0.466220000000000     -1.152380000000000     -2.769540000000000
H       0.502020000000000      0.385840000000000     -2.699140000000000
C       2.944210000000000     -0.547400000000000     -1.691570000000000
C       2.377970000000000     -1.982380000000000      0.274270000000000
C       1.734540000000000     -2.741660000000000     -2.023610000000000
H       3.065090000000000      0.334240000000000     -1.023900000000000
H       3.929450000000000     -1.049380000000000     -1.794020000000000
H       2.649950000000000     -0.184670000000000     -2.696800000000000
H       1.654480000000000     -2.692850000000000      0.728500000000000
H       3.362270000000000     -2.495280000000000      0.190420000000000
H       2.498790000000000     -1.118080000000000      0.960920000000000
H       0.977200000000000     -3.439400000000000     -1.606170000000000
H       1.419800000000000     -2.440160000000000     -3.043780000000000
H       2.700840000000000     -3.282740000000000     -2.117260000000000
Na     -2.168930000000000     -7.035610000000000      2.464110000000000
C      -0.649800000000000     -5.867330000000000      5.025050000000000
C       0.074730000000000     -8.092650000000001      4.865370000000000
O      -0.997760000000000     -7.190990000000000      4.666890000000000
C      -0.058530000000000     -5.120820000000000      3.833710000000000
C       0.042160000000000     -8.686959999999999      6.271120000000000
H      -1.577970000000000     -5.344270000000000      5.338850000000000
H       0.038390000000000     -5.824050000000000      5.899250000000000
H      -0.038240000000000     -8.919460000000001      4.132000000000000
H       1.066580000000000     -7.631100000000000      4.661410000000000
H      -0.914080000000000     -9.222140000000000      6.445290000000000
H       0.875840000000000     -9.410439999999999      6.384340000000000
H       0.156660000000000     -7.891150000000000      7.035720000000000
H      -0.782630000000000     -5.105210000000000      2.992500000000000
H       0.169580000000000     -4.076590000000000      4.129590000000000
H       0.879520000000000     -5.605570000000000      3.494830000000000
C       0.723350000000000     -7.714030000000000      0.842680000000000
C      -1.147390000000000     -7.770540000000000     -0.632270000000000
O      -0.686840000000000     -7.720660000000000      0.706950000000000
C       1.397080000000000     -6.484460000000000      0.230200000000000
C      -0.761880000000000     -9.056440000000000     -1.363390000000000
H       0.933210000000000     -7.684060000000000      1.932420000000000
H       1.176510000000000     -8.659710000000000      0.480820000000000
H      -2.257320000000000     -7.749590000000000     -0.584230000000000
H      -0.860140000000000     -6.864500000000000     -1.204660000000000
H      -1.089780000000000     -9.938359999999999     -0.774940000000000
H      -1.260800000000000     -9.078200000000001     -2.354780000000000
H       0.332140000000000     -9.105359999999999     -1.536240000000000
H       0.942820000000000     -5.556040000000000      0.635970000000000
H       2.477760000000000     -6.497160000000000      0.484070000000000
H       1.312900000000000     -6.490450000000000     -0.875220000000000
Na     -2.895840000000000     -8.190790000000000      5.754200000000000
C      -5.026240000000000     -7.601350000000000      3.249010000000000
C      -4.039600000000000     -9.718800000000000      3.105210000000000
O      -3.888690000000000     -8.384580000000000      3.546430000000000
C      -4.956080000000000     -6.312090000000000      4.057690000000000
C      -3.775560000000000     -9.856090000000000      1.607310000000000
H      -5.032980000000000     -7.330300000000000      2.171510000000000
H      -5.974380000000000     -8.114610000000001      3.526280000000000
H      -3.280430000000000    -10.329100000000000      3.639970000000000
H      -5.027970000000000    -10.146910000000000      3.384040000000000
H      -2.762880000000000     -9.474610000000000      1.362660000000000
H      -3.833140000000000    -10.926589999999999      1.318820000000000
H      -4.531230000000000     -9.295159999999999      1.020340000000000
H      -4.023790000000000     -5.757440000000000      3.817530000000000
H      -5.828380000000000     -5.667970000000000      3.818960000000000
H      -4.968060000000000     -6.540950000000000      5.143750000000000
C      -5.437810000000000     -8.638460000000000      7.838640000000000
C      -4.221450000000000     -6.789000000000000      8.514410000000000
O      -4.391210000000000     -7.757780000000000      7.508340000000000
C      -5.550980000000000     -9.678319999999999      6.732020000000000
C      -3.098100000000000     -5.853980000000000      8.087450000000000
H      -5.223710000000000     -9.172340000000000      8.792030000000000
H      -6.406070000000000     -8.092760000000000      7.899890000000000
H      -5.146020000000000     -6.181630000000000      8.639960000000000
H      -3.928040000000000     -7.265590000000000      9.476900000000001
H      -3.361700000000000     -5.361420000000000      7.127070000000000
H      -2.935520000000000     -5.073760000000000      8.859740000000000
H      -2.156170000000000     -6.427950000000000      7.949490000000000
H      -4.598730000000000    -10.244199999999999      6.640690000000000
H      -6.373740000000000    -10.388430000000000      6.955880000000000
H      -5.762840000000000     -9.177619999999999      5.764630000000000
Mg     -1.179760000000000    -13.545260000000001      2.713800000000000
H      -3.873320000000000    -14.670489999999999      3.984310000000000
C      -3.189460000000000    -16.464140000000000      2.930990000000000
C      -3.324180000000000    -14.955500000000001      3.063840000000000
C      -2.447370000000000    -17.100180000000002      4.114370000000000
H      -4.210850000000000    -16.894870000000001      2.871720000000000
H      -2.653630000000000    -16.703610000000001      1.987920000000000
H      -2.979890000000000    -16.873629999999999      5.063630000000000
H      -2.453030000000000    -18.200669999999999      3.964890000000000
C      -0.990450000000000    -16.646899999999999      4.227670000000000
H      -3.833240000000000    -14.531890000000001      2.171590000000000
H      -0.928980000000000    -15.563319999999999      4.454110000000000
H      -0.497530000000000    -17.203869999999998      5.053380000000000
H      -0.441320000000000    -16.858419999999999      3.285250000000000
C       0.180190000000000    -12.703370000000000      5.457850000000000
C       1.478890000000000    -12.334289999999999      5.770250000000000
C       2.209860000000000    -12.399520000000001      4.593920000000000
C       1.333960000000000    -12.825100000000001      3.620540000000000
N       0.111320000000000    -12.989490000000000      4.149970000000000
C       1.622200000000000    -13.081120000000000      2.154280000000000
N       0.467100000000000    -13.763050000000000      1.533150000000000
C       0.494460000000000    -14.171320000000000      0.118020000000000
H       1.851560000000000    -12.046849999999999      6.743440000000000
H      -0.655320000000000    -12.754980000000000      6.144970000000000
H       3.261190000000000    -12.176720000000000      4.466770000000000
H       1.821770000000000    -12.103669999999999      1.667550000000000
H       2.513850000000000    -13.732780000000000      2.083300000000000
C       1.581550000000000    -15.243560000000000     -0.093890000000000
C      -0.870440000000000    -14.786490000000001     -0.238230000000000
C       0.752860000000000    -12.962880000000000     -0.798570000000000
H       1.391470000000000    -16.117989999999999      0.566940000000000
H       1.588470000000000    -15.595400000000000     -1.147580000000000
H       2.591740000000000    -14.847070000000000      0.133350000000000
H      -1.685410000000000    -14.043640000000000     -0.102360000000000
H      -0.882650000000000    -15.127890000000001     -1.297250000000000
H      -1.085310000000000    -15.663019999999999      0.409140000000000
H      -0.030830000000000    -12.191280000000001     -0.647620000000000
H       1.744470000000000    -12.510240000000000     -0.592310000000000
H       0.742060000000000    -13.275470000000000     -1.865160000000000

-C 0
6-31g(d,p)
****
-H 0
6-31g(d,p)
****
-Mg 0
6-31g(d,p)
****
-N 0
6-31+g(d,p)
****
-Na 0
6-31g(d,p)
****
-O 0
6-31+g(d,p)
****


