%chk=lowest10_c1_a2_speciation7_speciationDFT1_speciationDFT1_rank06_E220.32.chk
%nprocshared=20
%mem=40GB
#p opt=loose PM7/gen scf=xqc 

lowest10_c1_a2_speciation7_speciationDFT1_speciationDFT1_rank06_E220.32 DFT input

0 1
Mg      0.308920000000000      0.577100000000000      0.215090000000000
H       2.869090000000000     -0.019870000000000      1.745370000000000
C       1.434750000000000     -1.203500000000000      2.900190000000000
C       1.832920000000000      0.044220000000000      2.136140000000000
C       2.333620000000000     -1.357660000000000      4.122050000000000
H       0.371780000000000     -1.114350000000000      3.214030000000000
H       1.534010000000000     -2.085390000000000      2.229790000000000
H       3.392210000000000     -1.433470000000000      3.790580000000000
H       2.222770000000000     -0.463040000000000      4.773250000000000
C       1.971810000000000     -2.601010000000000      4.919820000000000
H       1.682930000000000      0.962640000000000      2.741380000000000
H       0.921720000000000     -2.536590000000000      5.276060000000000
H       2.093440000000000     -3.508680000000000      4.291330000000000
H       2.646560000000000     -2.676660000000000      5.797460000000000
C       1.641830000000000      2.335040000000000     -2.064930000000000
C       1.216570000000000      2.652360000000000     -3.344730000000000
C      -0.002840000000000      2.019680000000000     -3.532830000000000
C      -0.263100000000000      1.333390000000000     -2.368580000000000
N       0.728190000000000      1.537550000000000     -1.489810000000000
C      -1.472380000000000      0.473120000000000     -2.050570000000000
N      -1.272370000000000     -0.230060000000000     -0.766170000000000
C      -2.291060000000000     -1.156000000000000     -0.238920000000000
H       1.732500000000000      3.277790000000000     -4.060060000000000
H       2.555110000000000      2.671350000000000     -1.589700000000000
H      -0.624380000000000      2.048610000000000     -4.417050000000000
H      -1.594570000000000     -0.268640000000000     -2.861590000000000
H      -2.355690000000000      1.141760000000000     -2.000160000000000
C      -2.418360000000000     -2.372310000000000     -1.175490000000000
C      -1.843190000000000     -1.654300000000000      1.147560000000000
C      -3.649720000000000     -0.448050000000000     -0.095150000000000
H      -1.437780000000000     -2.889610000000000     -1.266280000000000
H      -3.164120000000000     -3.096020000000000     -0.783570000000000
H      -2.747380000000000     -2.067860000000000     -2.189270000000000
H      -1.751020000000000     -0.807460000000000      1.860530000000000
H      -2.583130000000000     -2.375610000000000      1.561740000000000
H      -0.860900000000000     -2.169460000000000      1.083460000000000
H      -3.556240000000000      0.432760000000000      0.575940000000000
H      -4.029020000000000     -0.108210000000000     -1.080420000000000
H      -4.404380000000000     -1.140440000000000      0.333740000000000
Na    -12.308980000000000     -5.368660000000000     -2.668880000000000
C      -9.983420000000001     -3.534440000000000     -3.883490000000000
C      -9.142070000000000     -5.720310000000000     -4.007090000000000
O      -9.944950000000000     -4.811930000000000     -3.277280000000000
C     -11.131240000000000     -3.443950000000000     -4.883880000000000
C      -7.692770000000000     -5.681780000000000     -3.528820000000000
H     -10.157280000000000     -2.783680000000000     -3.083750000000000
H      -9.017980000000000     -3.255720000000000     -4.363000000000000
H      -9.543150000000001     -6.741230000000000     -3.831550000000000
H      -9.193420000000000     -5.552430000000000     -5.106000000000000
H      -7.633200000000000     -5.931700000000000     -2.449310000000000
H      -7.097200000000000     -6.427090000000000     -4.096420000000000
H      -7.252950000000000     -4.676380000000000     -3.692050000000000
H     -12.097140000000000     -3.653380000000000     -4.378650000000000
H     -11.167610000000000     -2.422100000000000     -5.315230000000000
H     -10.989080000000000     -4.172160000000000     -5.708180000000000
C     -12.667930000000000     -7.118590000000000     -5.546760000000000
C     -14.510999999999999     -7.454210000000000     -4.073430000000000
O     -13.198779999999999     -6.947020000000000     -4.244350000000000
C     -13.443170000000000     -6.370910000000000     -6.632350000000000
C     -14.607379999999999     -8.969820000000000     -4.247740000000000
H     -11.645910000000001     -6.685460000000000     -5.528400000000000
H     -12.530760000000001     -8.190120000000000     -5.798620000000000
H     -14.800000000000001     -7.232500000000000     -3.023670000000000
H     -15.250220000000001     -6.915980000000000     -4.701930000000000
H     -13.873120000000000     -9.475870000000000     -3.586280000000000
H     -15.629980000000000     -9.305470000000000     -3.975740000000000
H     -14.426439999999999     -9.262060000000000     -5.301740000000000
H     -13.536630000000001     -5.297340000000000     -6.365340000000000
H     -12.896480000000000     -6.455040000000000     -7.593810000000000
H     -14.450060000000001     -6.810560000000000     -6.780300000000000
Na     -9.188620000000000     -4.960750000000000     -0.997450000000000
C     -12.252420000000001     -5.084670000000000      0.335340000000000
C     -11.359730000000001     -7.211410000000000     -0.057660000000000
O     -11.382550000000000     -5.858330000000000     -0.464780000000000
C     -11.956680000000000     -3.610360000000000      0.091920000000000
C     -12.570280000000000     -7.982740000000000     -0.579070000000000
H     -13.308370000000000     -5.274960000000000      0.046710000000000
H     -12.106170000000001     -5.276550000000000      1.422130000000000
H     -10.449470000000000     -7.671130000000000     -0.498810000000000
H     -11.253330000000000     -7.319580000000000      1.044570000000000
H     -12.622620000000000     -7.906790000000000     -1.684690000000000
H     -12.475020000000001     -9.052619999999999     -0.298780000000000
H     -13.509029999999999     -7.589160000000000     -0.138760000000000
H     -12.089020000000000     -3.364040000000000     -0.983380000000000
H     -12.648009999999999     -2.982110000000000      0.691950000000000
H     -10.912960000000000     -3.376090000000000      0.388190000000000
C      -7.923210000000000     -4.096760000000000      1.946270000000000
C      -7.602610000000000     -2.363530000000000      0.447310000000000
O      -8.216559999999999     -3.611640000000000      0.658310000000000
C      -8.582530000000000     -5.460340000000000      2.102200000000000
C      -7.974930000000000     -1.880780000000000     -0.947780000000000
H      -6.825840000000000     -4.227420000000000      2.083120000000000
H      -8.340900000000000     -3.420220000000000      2.725280000000000
H      -7.970420000000000     -1.611740000000000      1.181500000000000
H      -6.494900000000000     -2.455950000000000      0.497020000000000
H      -9.078450000000000     -1.780110000000000     -1.029890000000000
H      -7.506900000000000     -0.894730000000000     -1.148700000000000
H      -7.623580000000000     -2.609810000000000     -1.709790000000000
H      -8.188879999999999     -6.164520000000000      1.337720000000000
H      -8.378170000000001     -5.871700000000000      3.112310000000000
H      -9.680120000000001     -5.365680000000000      1.968900000000000
Mg     -6.980240000000000    -11.031940000000001     -8.259800000000000
H      -9.554980000000000    -11.770519999999999     -9.840020000000001
C      -9.881370000000000     -9.640010000000000     -9.478520000000000
C      -9.417669999999999    -11.016579999999999     -9.037550000000000
C     -11.375769999999999     -9.673389999999999     -9.788460000000001
H      -9.675879999999999     -8.910100000000000     -8.665360000000000
H      -9.305619999999999     -9.337890000000000    -10.380690000000000
H     -11.568460000000000    -10.415509999999999    -10.593750000000000
H     -11.933590000000001     -9.978750000000000     -8.876130000000000
C     -11.874960000000000     -8.309460000000000    -10.242360000000000
H      -9.924390000000001    -11.334660000000000     -8.102449999999999
H     -11.704540000000000     -7.554710000000000     -9.446600000000000
H     -11.345010000000000     -7.994500000000000    -11.166240000000000
H     -12.962590000000001     -8.371660000000000    -10.454350000000000
C      -5.599140000000000    -13.878420000000000     -8.452280000000000
C      -4.276300000000000    -14.272919999999999     -8.339810000000000
C      -3.529650000000000    -13.125420000000000     -8.116759999999999
C      -4.426160000000000    -12.078960000000000     -8.117559999999999
N      -5.667750000000000    -12.545299999999999     -8.309650000000000
C      -4.131680000000000    -10.601100000000001     -7.925840000000000
N      -5.357950000000000     -9.810090000000001     -8.165020000000000
C      -5.357030000000000     -8.340339999999999     -8.063770000000000
H      -3.897220000000000    -15.283540000000000     -8.409060000000000
H      -6.450740000000000    -14.524430000000001     -8.623070000000000
H      -2.458990000000000    -13.061570000000000     -7.979840000000000
H      -3.352750000000000    -10.303750000000001     -8.653680000000000
H      -3.763800000000000    -10.457610000000001     -6.889400000000000
C      -4.441840000000000     -7.743460000000000     -9.149720000000000
C      -6.790520000000000     -7.831300000000000     -8.299370000000000
C      -4.894100000000000     -7.889860000000000     -6.667080000000000
H      -4.783210000000000     -8.065289999999999    -10.158200000000001
H      -4.457670000000000     -6.633330000000000     -9.111480000000000
H      -3.390840000000000     -8.070380000000000     -9.015480000000000
H      -7.482750000000000     -8.236200000000000     -7.530500000000000
H      -6.826090000000000     -6.720280000000000     -8.247130000000000
H      -7.158300000000000     -8.141529999999999     -9.301030000000001
H      -5.553720000000000     -8.322319999999999     -5.884240000000000
H      -3.850300000000000     -8.209680000000001     -6.470660000000000
H      -4.927280000000000     -6.782020000000000     -6.584960000000000

-C 0
6-31g(d,p)
****
-H 0
6-31g(d,p)
****
-Mg 0
6-31g(d,p)
****
-N 0
6-31+g(d,p)
****
-Na 0
6-31g(d,p)
****
-O 0
6-31+g(d,p)
****


