%chk=lowest10_c1_a2_speciation7_speciationDFT36_speciationDFT96_rank06_E228.60.chk
%nprocshared=20
%mem=40GB
#p opt=loose PM7/gen scf=xqc 

lowest10_c1_a2_speciation7_speciationDFT36_speciationDFT96_rank06_E228.60 DFT input

0 1
Mg     -0.355180000000000     -0.255110000000000      0.003070000000000
C       1.645770000000000     -1.332130000000000     -2.647940000000000
C       1.073990000000000      0.983330000000000     -2.744980000000000
O       1.161370000000000     -0.192380000000000     -1.962450000000000
C       3.099950000000000     -1.207420000000000     -3.090570000000000
C       0.078760000000000      0.878850000000000     -3.897530000000000
H       1.592580000000000     -2.175110000000000     -1.925400000000000
H       0.994700000000000     -1.621770000000000     -3.494480000000000
H       0.689600000000000      1.777250000000000     -2.074350000000000
H       2.070940000000000      1.339440000000000     -3.074550000000000
H      -0.903930000000000      0.523340000000000     -3.524350000000000
H      -0.053600000000000      1.881560000000000     -4.354700000000000
H       0.453750000000000      0.191180000000000     -4.680660000000000
H       3.747120000000000     -0.936020000000000     -2.232490000000000
H       3.436830000000000     -2.183780000000000     -3.497890000000000
H       3.200430000000000     -0.446520000000000     -3.889280000000000
H      -0.836270000000000     -3.083150000000000     -0.721070000000000
C      -2.032590000000000     -2.123660000000000     -2.293330000000000
C      -1.535120000000000     -2.234130000000000     -0.868770000000000
C      -2.833290000000000     -3.365280000000000     -2.644240000000000
H      -2.667950000000000     -1.219950000000000     -2.395800000000000
H      -1.167190000000000     -2.021520000000000     -2.976430000000000
H      -2.184090000000000     -4.260930000000000     -2.532050000000000
H      -3.695010000000000     -3.450530000000000     -1.946910000000000
C      -3.345680000000000     -3.290060000000000     -4.073390000000000
H      -2.365980000000000     -2.241370000000000     -0.133290000000000
H      -4.004210000000000     -2.403950000000000     -4.197790000000000
H      -2.493230000000000     -3.216130000000000     -4.782130000000000
H      -3.925740000000000     -4.207860000000000     -4.297530000000000
C       1.603690000000000      1.145160000000000      4.229570000000000
C       0.397800000000000      1.706410000000000      4.588170000000000
C      -0.155380000000000      2.241660000000000      3.434970000000000
C       0.695480000000000      1.975890000000000      2.447000000000000
N       1.805400000000000      1.296850000000000      2.972730000000000
C       0.608690000000000      2.367130000000000      0.983990000000000
N      -0.464190000000000      1.735180000000000      0.193640000000000
C      -1.871550000000000      2.158680000000000      0.196870000000000
H      -0.019340000000000      1.733310000000000      5.587130000000000
H       2.303980000000000      0.644270000000000      4.882060000000000
H      -1.085540000000000      2.778680000000000      3.380750000000000
H       1.558900000000000      2.027240000000000      0.518140000000000
H       0.591060000000000      3.465410000000000      0.875110000000000
C      -1.996920000000000      3.655350000000000      0.485830000000000
C      -2.436050000000000      1.883720000000000     -1.211020000000000
C      -2.687790000000000      1.310130000000000      1.193650000000000
H      -1.397500000000000      4.225080000000000     -0.257630000000000
H      -3.054830000000000      3.978280000000000      0.420520000000000
H      -1.621260000000000      3.886160000000000      1.497810000000000
H      -2.345060000000000      0.807980000000000     -1.462200000000000
H      -3.511220000000000      2.158270000000000     -1.273410000000000
H      -1.878670000000000      2.456330000000000     -1.982420000000000
H      -2.672330000000000      0.234530000000000      0.908590000000000
H      -2.299070000000000      1.375610000000000      2.219160000000000
H      -3.747770000000000      1.642360000000000      1.205780000000000
C       1.249920000000000     -1.831750000000000      2.218900000000000
C       2.810130000000000     -0.822600000000000      0.765150000000000
O       1.502710000000000     -1.337480000000000      0.918440000000000
C      -0.194000000000000     -1.525190000000000      2.623090000000000
C       3.822850000000000     -1.939880000000000      0.616070000000000
H       1.384510000000000     -2.931870000000000      2.207470000000000
H       1.915790000000000     -1.393690000000000      2.993180000000000
H       2.828130000000000     -0.199080000000000     -0.150640000000000
H       3.108630000000000     -0.136980000000000      1.576760000000000
H       3.536580000000000     -2.595710000000000     -0.231690000000000
H       4.823410000000000     -1.500450000000000      0.425080000000000
H       3.858160000000000     -2.533100000000000      1.551990000000000
H      -0.378600000000000     -0.436420000000000      2.656340000000000
H      -0.912680000000000     -1.968070000000000      1.904960000000000
H      -0.398350000000000     -1.940120000000000      3.631380000000000
Na     -1.611370000000000      9.565110000000001     13.208019999999999
C      -1.534790000000000      8.996520000000000     16.348500000000001
C      -1.834790000000000     11.312390000000001     16.127829999999999
O      -1.239800000000000     10.149530000000000     15.584250000000001
C      -2.822330000000000      8.338170000000000     15.863149999999999
C      -0.903560000000000     11.992369999999999     17.128329999999998
H      -0.701550000000000      8.275219999999999     16.211099999999998
H      -1.584320000000000      9.205859999999999     17.440740000000002
H      -2.025560000000000     12.017139999999999     15.290509999999999
H      -2.824690000000000     11.109959999999999     16.593660000000000
H       0.052150000000000     12.275119999999999     16.640180000000001
H      -1.388200000000000     12.913309999999999     17.514569999999999
H      -0.688090000000000     11.319440000000000     17.983650000000001
H      -2.732820000000000      8.065310000000000     14.790820000000000
H      -3.011990000000000      7.417120000000000     16.452400000000001
H      -3.684490000000000      9.023880000000000     15.990850000000000
C      -4.737750000000000     10.786750000000000     13.294020000000000
C      -4.083710000000000     10.228870000000001     11.069350000000000
O      -3.689520000000000     10.411420000000000     12.418120000000000
C      -5.838640000000000      9.733870000000000     13.426200000000000
C      -4.606740000000000     11.503450000000001     10.407430000000000
H      -4.280800000000000     10.898360000000000     14.299709999999999
H      -5.147360000000000     11.786339999999999     13.042380000000000
H      -3.169420000000000      9.930500000000000     10.512440000000000
H      -4.789990000000000      9.380830000000000     10.954570000000000
H      -3.867320000000000     12.323490000000000     10.524060000000000
H      -4.768940000000000     11.314200000000000      9.325580000000000
H      -5.577930000000000     11.809329999999999     10.846190000000000
H      -5.399070000000000      8.753860000000000     13.707560000000001
H      -6.551000000000000     10.049180000000000     14.217400000000000
H      -6.409190000000000      9.632110000000001     12.481130000000000
Na      1.062450000000000     10.682110000000000     15.223470000000001
C       1.217750000000000      9.382910000000001     12.169879999999999
C       0.696960000000000     11.663300000000000     12.125230000000000
O       0.613590000000000     10.457850000000001     12.858050000000000
C       1.417280000000000      8.227700000000000     13.142760000000001
C      -0.350220000000000     11.733210000000000     11.014730000000000
H       0.549280000000000      9.031670000000000     11.357440000000000
H       2.219010000000000      9.652189999999999     11.764310000000000
H       0.491490000000000     12.492240000000001     12.836000000000000
H       1.720580000000000     11.845420000000001     11.729799999999999
H      -1.367060000000000     11.609430000000000     11.440740000000000
H      -0.291650000000000     12.723409999999999     10.516170000000001
H      -0.172920000000000     10.948180000000001     10.251500000000000
H       0.442870000000000      7.919600000000000     13.578730000000000
H       1.863240000000000      7.359940000000000     12.612560000000000
H       2.098520000000000      8.532130000000000     13.964470000000000
C       4.368360000000000     10.658569999999999     15.444310000000000
C       3.477900000000000      9.251340000000001     17.053619999999999
O       3.195220000000000     10.057259999999999     15.935810000000000
C       3.989840000000000     11.535780000000001     14.258279999999999
C       2.176160000000000      8.609389999999999     17.514769999999999
H       4.837520000000000     11.307960000000000     16.217540000000000
H       5.086140000000000      9.886340000000001     15.087420000000000
H       4.187810000000000      8.436620000000000     16.785930000000000
H       3.877860000000000      9.864720000000000     17.892219999999998
H       1.751160000000000      7.988840000000000     16.696980000000000
H       2.359090000000000      7.963830000000000     18.398679999999999
H       1.439150000000000      9.395569999999999     17.787820000000000
H       3.270750000000000     12.320800000000000     14.577800000000000
H       4.893290000000000     12.022860000000000     13.836740000000001
H       3.514740000000000     10.917460000000000     13.468719999999999
Mg     -0.625800000000000     10.042310000000001      4.680700000000000
C      -0.863490000000000      6.179540000000000      4.646160000000000
C       1.371010000000000      6.743910000000000      4.716780000000000
O       0.119420000000000      7.063590000000000      4.145180000000000
C      -2.086680000000000      6.220740000000000      3.744100000000000
C       2.408580000000000      7.764170000000000      4.269970000000000
H      -0.509050000000000      5.124030000000000      4.657010000000000
H      -1.164570000000000      6.483170000000000      5.671280000000000
H       1.322110000000000      6.762700000000000      5.827630000000000
H       1.710020000000000      5.742050000000000      4.373910000000000
H       2.118300000000000      8.782120000000001      4.600230000000000
H       3.395650000000000      7.514370000000000      4.713520000000000
H       2.498470000000000      7.754540000000000      3.163600000000000
H      -1.810580000000000      5.922020000000000      2.713480000000000
H      -2.867260000000000      5.534710000000000      4.133590000000000
H      -2.506940000000000      7.237810000000000      3.706580000000000
H       1.647680000000000     10.043450000000000      2.279790000000000
C       1.176740000000000     11.964680000000000      3.221980000000000
C       0.767750000000000     10.627689999999999      2.616210000000000
C       2.092350000000000     11.771970000000000      4.437370000000000
H       1.702660000000000     12.550190000000001      2.439700000000000
H       0.263430000000000     12.517170000000000      3.535990000000000
H       1.548660000000000     11.234320000000000      5.244800000000000
H       2.981050000000000     11.171749999999999      4.146940000000000
C       2.573700000000000     13.117000000000001      4.974230000000000
H       0.059740000000000     10.776730000000001      1.775320000000000
H       3.140760000000000     13.657740000000000      4.186400000000000
H       1.712720000000000     13.740190000000000      5.296800000000000
H       3.244900000000000     12.955800000000000      5.844110000000000
C       0.782380000000000      8.904859999999999      7.280740000000000
C       0.260800000000000      8.311579999999999      8.415559999999999
C      -1.117830000000000      8.283920000000000      8.260249999999999
C      -1.375070000000000      8.839090000000001      7.024660000000000
N      -0.226360000000000      9.212070000000001      6.450400000000000
C      -2.721700000000000      9.051200000000000      6.351280000000000
N      -2.538980000000000      9.387630000000000      4.917830000000000
C      -3.642230000000000     10.031560000000001      4.178960000000000
H       0.824410000000000      7.942320000000000      9.260490000000001
H       1.829200000000000      9.087970000000000      7.074440000000000
H      -1.842650000000000      7.890930000000000      8.959059999999999
H      -3.307250000000000      8.111120000000000      6.410040000000000
H      -3.248040000000000      9.853840000000000      6.904670000000000
C      -3.803980000000000     11.498100000000001      4.612340000000000
C      -3.301870000000000     10.003240000000000      2.674660000000000
C      -4.957580000000000      9.255480000000000      4.393910000000000
H      -2.865520000000000     12.062189999999999      4.421340000000000
H      -4.624940000000000     11.979770000000000      4.037250000000000
H      -4.052240000000000     11.578650000000000      5.688800000000000
H      -3.179840000000000      8.962450000000000      2.307930000000000
H      -4.111820000000000     10.478050000000000      2.077890000000000
H      -2.357900000000000     10.552040000000000      2.473460000000000
H      -4.832930000000000      8.194820000000000      4.083960000000000
H      -5.263100000000000      9.274920000000000      5.460470000000000
H      -5.780760000000000      9.700340000000001      3.795340000000000

-C 0
6-31g(d,p)
****
-H 0
6-31g(d,p)
****
-Mg 0
6-31g(d,p)
****
-N 0
6-31+g(d,p)
****
-Na 0
6-31g(d,p)
****
-O 0
6-31+g(d,p)
****


