%chk=lowest10_c1_a2_speciation7_speciationDFT38_speciationDFT96_rank09_E227.99.chk
%nprocshared=20
%mem=40GB
#p opt=loose PM7/gen scf=xqc 

lowest10_c1_a2_speciation7_speciationDFT38_speciationDFT96_rank09_E227.99 DFT input

0 1
Mg     -0.024480000000000      0.324620000000000      0.377010000000000
C       0.773960000000000     -2.843570000000000      1.650880000000000
C      -1.128850000000000     -2.834950000000000      0.211210000000000
O       0.027390000000000     -2.155840000000000      0.663860000000000
C       1.410920000000000     -4.135260000000000      1.147680000000000
C      -2.182770000000000     -3.038010000000000      1.296780000000000
H       1.600950000000000     -2.162420000000000      1.946630000000000
H       0.188380000000000     -3.020880000000000      2.573010000000000
H      -1.594100000000000     -2.184640000000000     -0.556040000000000
H      -0.878660000000000     -3.775830000000000     -0.319410000000000
H      -2.405850000000000     -2.073950000000000      1.798950000000000
H      -3.113870000000000     -3.423470000000000      0.831630000000000
H      -1.840830000000000     -3.779940000000000      2.044840000000000
H       2.012400000000000     -3.944650000000000      0.236280000000000
H       2.077830000000000     -4.539060000000000      1.938130000000000
H       0.634770000000000     -4.895140000000000      0.930330000000000
H       1.196160000000000      0.438340000000000      3.084760000000000
C      -0.855090000000000     -0.084000000000000      3.664230000000000
C       0.145100000000000      0.675270000000000      2.819740000000000
C      -0.702720000000000      0.326520000000000      5.118960000000000
H      -1.883160000000000      0.139580000000000      3.311830000000000
H      -0.676100000000000     -1.171220000000000      3.553750000000000
H       0.332750000000000      0.100690000000000      5.455230000000000
H      -0.884370000000000      1.419670000000000      5.209360000000000
C      -1.691610000000000     -0.423240000000000      5.996860000000000
H      -0.049590000000000      1.767750000000000      2.823610000000000
H      -2.732210000000000     -0.199290000000000      5.678530000000000
H      -1.513300000000000     -1.517570000000000      5.925370000000000
H      -1.556570000000000     -0.101300000000000      7.049150000000000
C       2.146890000000000      2.080800000000000     -3.654950000000000
C       1.157810000000000      3.028780000000000     -3.712650000000000
C      -0.025680000000000      2.432390000000000     -3.293180000000000
C       0.241060000000000      1.158780000000000     -2.970080000000000
N       1.596260000000000      0.875700000000000     -3.199570000000000
C      -0.722270000000000      0.088770000000000     -2.494130000000000
N      -1.313300000000000      0.279630000000000     -1.159430000000000
C      -2.466860000000000      1.144960000000000     -0.869570000000000
H       1.296700000000000      4.052800000000000     -4.035380000000000
H       3.187400000000000      2.217960000000000     -3.914210000000000
H      -0.979040000000000      2.926300000000000     -3.259040000000000
H      -0.125560000000000     -0.847370000000000     -2.422310000000000
H      -1.498370000000000     -0.101830000000000     -3.252310000000000
C      -3.394800000000000      1.258380000000000     -2.082380000000000
C      -3.248260000000000      0.488940000000000      0.285300000000000
C      -1.990110000000000      2.526660000000000     -0.377680000000000
H      -3.715170000000000      0.240990000000000     -2.397230000000000
H      -4.293410000000000      1.856170000000000     -1.830150000000000
H      -2.877910000000000      1.746330000000000     -2.928990000000000
H      -2.599420000000000      0.376030000000000      1.177180000000000
H      -4.126050000000000      1.104890000000000      0.577680000000000
H      -3.604540000000000     -0.523650000000000     -0.000110000000000
H      -1.401040000000000      2.433620000000000      0.561860000000000
H      -1.347600000000000      3.035780000000000     -1.109410000000000
H      -2.860900000000000      3.183760000000000     -0.167660000000000
C       2.966310000000000      1.128030000000000     -0.239010000000000
C       2.661480000000000     -1.105790000000000     -0.937090000000000
O       2.241900000000000     -0.074200000000000     -0.065950000000000
C       2.038240000000000      2.329170000000000     -0.043800000000000
C       3.952620000000000     -1.736420000000000     -0.458790000000000
H       3.761960000000000      1.171850000000000      0.531610000000000
H       3.429450000000000      1.222110000000000     -1.244860000000000
H       1.868540000000000     -1.879650000000000     -0.958820000000000
H       2.767050000000000     -0.781160000000000     -1.985240000000000
H       3.829600000000000     -2.104120000000000      0.580290000000000
H       4.209690000000000     -2.584220000000000     -1.126790000000000
H       4.765820000000000     -0.983730000000000     -0.497080000000000
H       1.228470000000000      2.335500000000000     -0.796000000000000
H       1.568980000000000      2.311440000000000      0.960320000000000
H       2.614150000000000      3.271520000000000     -0.148990000000000
Na     -2.373660000000000     -1.913590000000000     -9.591830000000000
C      -0.355300000000000     -2.228320000000000    -12.052370000000000
C       0.676960000000000     -0.705090000000000    -10.598400000000000
O      -0.548660000000000     -1.183940000000000    -11.118300000000000
C      -0.339420000000000     -3.584340000000000    -11.353990000000000
C       1.225960000000000      0.438620000000000    -11.447430000000001
H      -1.209210000000000     -2.211180000000000    -12.762430000000000
H       0.561220000000000     -2.090090000000000    -12.669100000000000
H       0.481940000000000     -0.320410000000000     -9.574610000000000
H       1.439500000000000     -1.508060000000000    -10.487719999999999
H       0.499800000000000      1.276890000000000    -11.486969999999999
H       2.169660000000000      0.811090000000000    -10.997249999999999
H       1.437160000000000      0.093580000000000    -12.480490000000000
H      -1.289770000000000     -3.741340000000000    -10.802070000000001
H      -0.227230000000000     -4.389050000000000    -12.109790000000000
H       0.507760000000000     -3.647380000000000    -10.641030000000001
C      -0.127040000000000     -3.069960000000000     -7.358960000000000
C      -2.335770000000000     -3.081270000000000     -6.462630000000000
O      -1.475520000000000     -2.662380000000000     -7.507960000000000
C       0.064450000000000     -4.586790000000000     -7.380510000000000
C      -1.977660000000000     -2.485650000000000     -5.101780000000000
H       0.421540000000000     -2.666440000000000     -8.235770000000000
H       0.348890000000000     -2.604030000000000     -6.471920000000000
H      -3.348920000000000     -2.704280000000000     -6.720000000000000
H      -2.433070000000000     -4.185600000000000     -6.421330000000000
H      -1.913410000000000     -1.381430000000000     -5.184360000000000
H      -2.765150000000000     -2.749520000000000     -4.365050000000000
H      -1.016480000000000     -2.891810000000000     -4.727020000000000
H      -0.394140000000000     -5.017890000000000     -8.295210000000001
H       1.150010000000000     -4.815550000000000     -7.379700000000000
H      -0.378180000000000     -5.058520000000000     -6.480200000000000
Na     -1.762640000000000      0.757730000000000    -11.838440000000000
C      -4.666170000000000     -0.158210000000000    -10.481700000000000
C      -3.403920000000000      1.193450000000000     -9.047310000000000
O      -3.368920000000000      0.245790000000000    -10.095110000000000
C      -4.574680000000000     -0.873610000000000    -11.823720000000000
C      -3.634000000000000      0.533620000000000     -7.689110000000000
H      -5.080790000000000     -0.873400000000000     -9.739409999999999
H      -5.354160000000000      0.706920000000000    -10.613939999999999
H      -2.409030000000000      1.687390000000000     -9.019140000000000
H      -4.142590000000000      2.003780000000000     -9.235530000000001
H      -2.851510000000000     -0.229450000000000     -7.498570000000000
H      -3.582670000000000      1.303770000000000     -6.891160000000000
H      -4.633120000000000      0.054050000000000     -7.647170000000000
H      -3.894610000000000     -1.748960000000000    -11.747510000000000
H      -5.580740000000000     -1.226690000000000    -12.133430000000001
H      -4.184600000000000     -0.182500000000000    -12.599800000000000
C      -3.330110000000000      2.937780000000000    -13.787140000000001
C      -2.327550000000000      1.318550000000000    -15.103320000000000
O      -2.635790000000000      1.713970000000000    -13.788819999999999
C      -3.606540000000000      3.324420000000000    -12.340410000000000
C      -1.605880000000000     -0.020770000000000    -15.037910000000000
H      -2.716820000000000      3.744700000000000    -14.248150000000001
H      -4.307460000000000      2.836010000000000    -14.310040000000001
H      -3.254870000000000      1.181130000000000    -15.703870000000000
H      -1.647870000000000      2.054810000000000    -15.588600000000000
H      -2.260470000000000     -0.778940000000000    -14.557130000000001
H      -1.345670000000000     -0.365800000000000    -16.060070000000000
H      -0.673140000000000      0.077550000000000    -14.441190000000001
H      -2.650110000000000      3.434230000000000    -11.784960000000000
H      -4.161240000000000      4.284530000000000    -12.298959999999999
H      -4.215540000000000      2.537150000000000    -11.849760000000000
Mg      6.237160000000000     -6.325450000000000    -12.001810000000001
C       7.789280000000000     -5.099070000000000     -9.286770000000001
C       8.715040000000000     -4.124690000000000    -11.262580000000000
O       7.904460000000000     -5.136500000000000    -10.699290000000000
C       7.368300000000000     -3.746730000000000     -8.705730000000001
C      10.185890000000001     -4.265410000000000    -10.888820000000001
H       6.981860000000000     -5.811980000000000     -9.025210000000000
H       8.710509999999999     -5.482310000000000     -8.802339999999999
H       8.644150000000000     -4.233740000000000    -12.362380000000000
H       8.320690000000001     -3.110140000000000    -11.055009999999999
H      10.775620000000000     -3.511380000000000    -11.450780000000000
H      10.552460000000000     -5.279250000000000    -11.151820000000001
H      10.330840000000000     -4.090300000000000     -9.804440000000000
H       6.444910000000000     -3.385990000000000     -9.194269999999999
H       8.174709999999999     -2.995220000000000     -8.824510000000000
H       7.164300000000000     -3.859220000000000     -7.621740000000000
H       8.041800000000000     -8.231130000000000    -12.618779999999999
C       7.406590000000000     -7.460780000000000    -14.566900000000000
C       7.108100000000000     -7.924580000000000    -13.132580000000001
C       8.292820000000001     -6.204150000000000    -14.670669999999999
H       7.886400000000000     -8.294589999999999    -15.121650000000001
H       6.440180000000000     -7.222130000000000    -15.060490000000000
H       8.422129999999999     -5.959660000000000    -15.748830000000000
H       7.781940000000000     -5.343700000000000    -14.192060000000000
C       9.684600000000000     -6.376250000000000    -14.062250000000001
H       6.409570000000000     -8.784660000000001    -13.152200000000001
H       9.615050000000000     -6.562200000000000    -12.972740000000000
H      10.221460000000000     -7.218100000000000    -14.546889999999999
H      10.274300000000000     -5.445840000000000    -14.215600000000000
C       5.915380000000000     -2.420370000000000    -12.633670000000000
C       5.579460000000000     -3.357380000000000    -13.583399999999999
C       4.827460000000000     -4.333670000000000    -12.955950000000000
C       4.726630000000000     -4.013210000000000    -11.662280000000001
N       5.374770000000000     -2.792990000000000    -11.391230000000000
C       4.049030000000000     -4.855670000000000    -10.614770000000000
N       4.737040000000000     -6.151250000000000    -10.529710000000000
C       4.163380000000000     -7.214050000000000     -9.668830000000000
H       5.872820000000000     -3.335520000000000    -14.624940000000000
H       6.513850000000000     -1.536550000000000    -12.802860000000001
H       4.427800000000000     -5.225870000000000    -13.418310000000000
H       2.985110000000000     -4.976880000000000    -10.895759999999999
H       4.119620000000000     -4.329300000000000     -9.639500000000000
C       2.804830000000000     -7.693000000000000    -10.218159999999999
C       5.134340000000000     -8.405730000000000     -9.644579999999999
C       3.979470000000000     -6.706650000000000     -8.219400000000000
H       2.916660000000000     -8.076720000000000    -11.253700000000000
H       2.394350000000000     -8.507780000000000     -9.581530000000001
H       2.054870000000000     -6.875910000000000    -10.219040000000000
H       6.119420000000000     -8.104250000000000     -9.230409999999999
H       4.730750000000000     -9.226590000000000     -9.009829999999999
H       5.289680000000000     -8.803310000000000    -10.669290000000000
H       4.946910000000000     -6.360400000000000     -7.797710000000000
H       3.256320000000000     -5.867160000000000     -8.172290000000000
H       3.587440000000000     -7.515690000000000     -7.564620000000000

-C 0
6-31g(d,p)
****
-H 0
6-31g(d,p)
****
-Mg 0
6-31g(d,p)
****
-N 0
6-31+g(d,p)
****
-Na 0
6-31g(d,p)
****
-O 0
6-31+g(d,p)
****


