%chk=lowest10_c1_a2_speciation0_speciationDFT0_speciationDFT37b_rank03_E164.47.chk
%nprocshared=20
%mem=40GB
#p opt=loose PM7/gen scf=xqc 

lowest10_c1_a2_speciation0_speciationDFT0_speciationDFT37b_rank03_E164.47 DFT input

0 1
Mg      0.532340000000000      0.140680000000000     -0.067060000000000
C       1.220670000000000     -2.940880000000000      0.378730000000000
C       2.069920000000000     -2.158740000000000     -1.708170000000000
O       1.010940000000000     -2.149530000000000     -0.774720000000000
C       2.443420000000000     -2.537920000000000      1.201890000000000
C       2.166740000000000     -3.488050000000000     -2.438380000000000
H       0.340400000000000     -2.770020000000000      1.024110000000000
H       1.200480000000000     -4.024480000000000      0.148680000000000
H       1.829050000000000     -1.376550000000000     -2.461080000000000
H       3.040410000000000     -1.850130000000000     -1.267980000000000
H       1.169200000000000     -3.762800000000000     -2.841340000000000
H       2.888410000000000     -3.397740000000000     -3.276270000000000
H       2.521500000000000     -4.277310000000000     -1.745740000000000
H       2.476680000000000     -1.438770000000000      1.337840000000000
H       2.385420000000000     -3.018660000000000      2.200070000000000
H       3.374470000000000     -2.877700000000000      0.707070000000000
H       2.513190000000000      1.547530000000000      0.845510000000000
C       2.206590000000000      2.206580000000000     -1.210630000000000
C       2.349740000000000      1.120790000000000     -0.164060000000000
C       0.975550000000000      3.074120000000000     -0.924230000000000
H       3.133000000000000      2.813800000000000     -1.190020000000000
H       2.089510000000000      1.740880000000000     -2.214850000000000
H       0.054740000000000      2.468470000000000     -1.056210000000000
H       0.997890000000000      3.447260000000000      0.121280000000000
C       0.930940000000000      4.274680000000000     -1.861160000000000
H       3.166820000000000      0.417030000000000     -0.419700000000000
H       1.827730000000000      4.907920000000000     -1.690160000000000
H       0.910430000000000      3.946780000000000     -2.921880000000000
H       0.024720000000000      4.881160000000000     -1.652560000000000
C      -2.507330000000000      1.715970000000000     -1.778480000000000
C      -1.720620000000000      0.765180000000000     -2.388310000000000
C      -1.583480000000000     -0.286010000000000     -1.499820000000000
C      -2.242960000000000      0.024110000000000     -0.377250000000000
N      -2.882270000000000      1.274030000000000     -0.501530000000000
C      -2.320230000000000     -0.806880000000000      0.877060000000000
N      -1.029020000000000     -0.835680000000000      1.587080000000000
C      -0.861390000000000      0.045130000000000      2.769340000000000
H      -1.279550000000000      0.847730000000000     -3.373440000000000
H      -2.789330000000000      2.668680000000000     -2.202180000000000
H      -1.018830000000000     -1.186950000000000     -1.684480000000000
H      -2.603230000000000     -1.845880000000000      0.603250000000000
H      -3.124080000000000     -0.407110000000000      1.514960000000000
C      -1.849710000000000     -0.345030000000000      3.885580000000000
C       0.568350000000000     -0.165260000000000      3.307370000000000
C      -1.023660000000000      1.537300000000000      2.407470000000000
H      -1.764440000000000     -1.429990000000000      4.107530000000000
H      -1.629950000000000      0.224950000000000      4.813910000000000
H      -2.897820000000000     -0.115390000000000      3.614760000000000
H       1.320350000000000      0.148190000000000      2.554520000000000
H       0.746730000000000      0.435000000000000      4.226860000000000
H       0.744100000000000     -1.235760000000000      3.548910000000000
H      -0.242020000000000      1.859850000000000      1.687180000000000
H      -2.016960000000000      1.739210000000000      1.963340000000000
H      -0.930490000000000      2.170050000000000      3.317370000000000
Na      2.980380000000000     -3.554830000000000     12.791850000000000
C       5.406220000000000     -3.790120000000000     14.949880000000000
C       5.703830000000000     -5.306180000000000     13.240660000000000
O       4.786980000000000     -4.806340000000000     14.190540000000000
C       4.415300000000000     -3.259480000000000     15.976480000000000
C       5.026490000000000     -6.391470000000000     12.415800000000001
H       6.286390000000000     -4.190060000000000     15.503240000000000
H       5.708560000000000     -2.938890000000000     14.298249999999999
H       6.028200000000000     -4.502230000000000     12.541130000000001
H       6.584820000000000     -5.763310000000000     13.746400000000000
H       4.146000000000000     -5.973790000000000     11.882619999999999
H       5.740890000000000     -6.794430000000000     11.666900000000000
H       4.693200000000000     -7.220440000000000     13.076070000000000
H       4.094430000000000     -4.076850000000000     16.656749999999999
H       4.892460000000000     -2.457880000000000     16.579419999999999
H       3.522480000000000     -2.840510000000000     15.465500000000000
Na      4.514480000000000     -6.789790000000000     15.905840000000000
Mg      1.463590000000000     -5.458060000000000      8.290710000000001
H       0.943990000000000     -7.910540000000000      6.375250000000000
C      -0.143260000000000     -6.356780000000000      5.276290000000000
C       0.341700000000000     -6.999170000000000      6.565590000000000
C       1.005020000000000     -5.952990000000000      4.340830000000000
H      -0.792690000000000     -7.090070000000000      4.754310000000000
H      -0.752710000000000     -5.460630000000000      5.519780000000000
H       1.616910000000000     -6.844390000000000      4.081750000000000
H       0.553480000000000     -5.555460000000000      3.407370000000000
C       1.911410000000000     -4.867140000000000      4.924360000000000
H      -0.518780000000000     -7.241710000000000      7.225910000000000
H       2.457720000000000     -5.241530000000000      5.813420000000000
H       2.659410000000000     -4.567440000000000      4.159570000000000
H       1.318160000000000     -3.970540000000000      5.204900000000000
C       4.635170000000000     -5.563900000000000      8.160560000000000
C       5.607020000000000     -4.667670000000000      8.578500000000000
C       4.940720000000000     -3.575160000000000      9.111499999999999
C       3.597000000000000     -3.838960000000000      8.978479999999999
N       3.426650000000000     -5.049410000000000      8.417770000000001
C       2.429170000000000     -2.964290000000000      9.384790000000001
N       1.174120000000000     -3.516680000000000      8.833760000000000
C      -0.113390000000000     -2.831460000000000      9.042040000000000
H       6.677380000000000     -4.795620000000000      8.506449999999999
H       4.809590000000000     -6.530280000000000      7.701430000000000
H       5.385550000000000     -2.683170000000000      9.534670000000000
H       2.398040000000000     -2.928540000000000     10.492690000000000
H       2.594860000000000     -1.949780000000000      8.975210000000001
C      -0.094480000000000     -1.464220000000000      8.329860000000000
C      -1.231150000000000     -3.687010000000000      8.419630000000000
C      -0.402820000000000     -2.646830000000000     10.542479999999999
H       0.109020000000000     -1.599910000000000      7.244490000000000
H      -1.071130000000000     -0.947180000000000      8.441870000000000
H       0.686080000000000     -0.799080000000000      8.751060000000001
H      -1.285370000000000     -4.682970000000000      8.909050000000001
H      -2.218590000000000     -3.187320000000000      8.536960000000001
H      -1.049260000000000     -3.839790000000000      7.334790000000000
H      -0.417910000000000     -3.631210000000000     11.057420000000000
H       0.365540000000000     -2.005460000000000     11.021010000000000
H      -1.388550000000000     -2.154790000000000     10.689750000000000

-C 0
6-31g(d,p)
****
-H 0
6-31g(d,p)
****
-Mg 0
6-31g(d,p)
****
-N 0
6-31+g(d,p)
****
-Na 0
6-31g(d,p)
****
-O 0
6-31+g(d,p)
****


