%chk=lowest10_c1_a2_speciation0_speciationDFT0_speciationDFT36_rank01_E180.39.chk
%nprocshared=20
%mem=40GB
#p opt=loose PM7/gen scf=xqc 

lowest10_c1_a2_speciation0_speciationDFT0_speciationDFT36_rank01_E180.39 DFT input

0 1
Mg      0.703320000000000      0.405830000000000      0.088940000000000
C      -2.976560000000000      0.051070000000000     -0.581140000000000
C      -1.876790000000000      0.101800000000000     -2.607690000000000
O      -1.928590000000000      0.660210000000000     -1.310200000000000
C      -3.326940000000000      0.909520000000000      0.624780000000000
C      -0.694570000000000      0.684660000000000     -3.370570000000000
H      -3.905680000000000     -0.042650000000000     -1.186370000000000
H      -2.664890000000000     -0.953130000000000     -0.226630000000000
H      -1.757510000000000     -1.001200000000000     -2.566400000000000
H      -2.799860000000000      0.346520000000000     -3.174460000000000
H       0.259210000000000      0.440710000000000     -2.860650000000000
H      -0.665330000000000      0.260340000000000     -4.396500000000000
H      -0.795600000000000      1.787650000000000     -3.440630000000000
H      -3.640620000000000      1.921550000000000      0.298180000000000
H      -4.146240000000000      0.432830000000000      1.201900000000000
H      -2.460450000000000      1.018970000000000      1.291950000000000
H       1.060430000000000      2.785640000000000     -2.000550000000000
C       2.924140000000000      2.026300000000000     -1.100050000000000
C       1.474630000000000      2.489480000000000     -1.017310000000000
C       3.088170000000000      0.837050000000000     -2.056550000000000
H       3.532580000000000      2.883300000000000     -1.452610000000000
H       3.269630000000000      1.725590000000000     -0.085640000000000
H       2.529050000000000     -0.045860000000000     -1.674600000000000
H       2.689260000000000      1.103170000000000     -3.058510000000000
C       4.561250000000000      0.464640000000000     -2.208760000000000
H       1.347090000000000      3.294360000000000     -0.265070000000000
H       5.130250000000000      1.331060000000000     -2.609100000000000
H       4.993360000000000      0.166770000000000     -1.229860000000000
H       4.666240000000000     -0.382930000000000     -2.918680000000000
C       0.247390000000000     -2.245280000000000     -1.575180000000000
C      -0.343510000000000     -3.446100000000000     -1.223990000000000
C      -0.724070000000000     -3.331020000000000      0.105210000000000
C      -0.365010000000000     -2.064200000000000      0.503060000000000
N       0.208760000000000     -1.419420000000000     -0.521730000000000
C      -0.526370000000000     -1.429240000000000      1.872780000000000
N      -0.309350000000000      0.034820000000000      1.806200000000000
C      -0.030180000000000      0.781630000000000      3.049150000000000
H      -0.479180000000000     -4.305850000000000     -1.863670000000000
H       0.661140000000000     -1.991950000000000     -2.545200000000000
H      -1.216130000000000     -4.079280000000000      0.710680000000000
H      -1.554330000000000     -1.612820000000000      2.244850000000000
H       0.209740000000000     -1.919920000000000      2.538980000000000
C       1.383060000000000      0.472360000000000      3.574150000000000
C      -0.114980000000000      2.291660000000000      2.745060000000000
C      -1.086650000000000      0.440110000000000      4.118420000000000
H       2.149510000000000      0.766750000000000      2.825010000000000
H       1.574810000000000      1.039550000000000      4.511430000000000
H       1.507080000000000     -0.603700000000000      3.804240000000000
H      -1.121980000000000      2.574070000000000      2.372750000000000
H       0.087010000000000      2.890540000000000      3.660740000000000
H       0.630600000000000      2.580090000000000      1.975060000000000
H      -2.106920000000000      0.652670000000000      3.730960000000000
H      -1.035560000000000     -0.632320000000000      4.395120000000000
H      -0.928310000000000      1.039420000000000      5.039610000000000
Na      2.187680000000000     -4.134470000000000     11.832190000000001
C       4.613630000000000     -4.369820000000000     13.990250000000000
C       4.911240000000000     -5.885870000000000     12.281029999999999
O       3.994380000000000     -5.386030000000000     13.230910000000000
C       3.622700000000000     -3.839190000000000     15.016850000000000
C       4.233880000000000     -6.971150000000000     11.456180000000000
H       5.493800000000000     -4.769760000000000     14.543609999999999
H       4.915970000000000     -3.518590000000000     13.338620000000001
H       5.235600000000000     -5.081920000000000     11.581500000000000
H       5.792230000000000     -6.343010000000000     12.786759999999999
H       3.353390000000000     -6.553460000000000     10.923010000000000
H       4.948280000000000     -7.374120000000000     10.707260000000000
H       3.900590000000000     -7.800120000000000     12.116450000000000
H       3.301840000000000     -4.656570000000000     15.697100000000001
H       4.099850000000000     -3.037600000000000     15.619800000000000
H       2.729890000000000     -3.420230000000000     14.505850000000001
Na      3.721860000000000     -7.369590000000000     14.946310000000000
Mg      0.671050000000000     -6.037610000000000      7.331100000000000
H       0.151480000000000     -8.490250000000000      5.415400000000000
C      -0.935890000000000     -6.936430000000000      4.316820000000000
C      -0.450620000000000     -7.578790000000000      5.605970000000000
C       0.211840000000000     -6.532200000000000      3.380940000000000
H      -1.585250000000000     -7.669840000000000      3.794900000000000
H      -1.545520000000000     -6.040430000000000      4.560370000000000
H       0.824170000000000     -7.423290000000000      3.121670000000000
H      -0.240790000000000     -6.135360000000000      2.447830000000000
C       1.117750000000000     -5.445080000000000      3.963200000000000
H      -1.311100000000000     -7.821470000000000      6.266260000000000
H       1.666080000000000     -5.819450000000000      4.851270000000000
H       1.862960000000000     -5.142470000000000      3.196160000000000
H       0.523730000000000     -4.549680000000000      4.245750000000000
C       3.844180000000000     -6.144470000000000      7.200500000000000
C       4.813500000000000     -5.247420000000000      7.618810000000000
C       4.148760000000000     -4.153710000000000      8.152300000000000
C       2.804420000000000     -4.420830000000000      8.017670000000001
N       2.632880000000000     -5.626790000000000      7.459210000000000
C       1.636720000000000     -3.542960000000000      8.425670000000000
N       0.381700000000000     -4.096810000000000      7.875090000000000
C      -0.905830000000000     -3.410940000000000      8.083410000000001
H       5.884950000000000     -5.375360000000000      7.546840000000000
H       4.016740000000000     -7.109690000000000      6.742060000000000
H       4.592980000000000     -3.262940000000000      8.574830000000000
H       1.605980000000000     -3.507520000000000      9.533040000000000
H       1.802260000000000     -2.529430000000000      8.015129999999999
C      -0.886020000000000     -2.044220000000000      7.371180000000000
C      -2.023450000000000     -4.266530000000000      7.460460000000000
C      -1.195420000000000     -3.226420000000000      9.583480000000000
H      -0.680130000000000     -2.183430000000000      6.287490000000000
H      -1.862780000000000     -1.526710000000000      7.480730000000000
H      -0.105850000000000     -1.378290000000000      7.791780000000000
H      -2.077830000000000     -5.262540000000000      7.949680000000000
H      -3.010950000000000     -3.766820000000000      7.577600000000000
H      -1.841380000000000     -4.419250000000000      6.375640000000000
H      -1.210610000000000     -4.210850000000000     10.098290000000000
H      -0.427020000000000     -2.585090000000000     10.061990000000000
H      -2.181180000000000     -2.734310000000000      9.730470000000000

-C 0
6-31g(d,p)
****
-H 0
6-31g(d,p)
****
-Mg 0
6-31g(d,p)
****
-N 0
6-31+g(d,p)
****
-Na 0
6-31g(d,p)
****
-O 0
6-31+g(d,p)
****


