%chk=lowest10_c1_a2_speciation0_speciationDFT0_speciationDFT38_rank09_E180.56.chk
%nprocshared=20
%mem=40GB
#p opt=loose PM7/gen scf=xqc 

lowest10_c1_a2_speciation0_speciationDFT0_speciationDFT38_rank09_E180.56 DFT input

0 1
Mg     -0.080540000000000     -0.473540000000000     -0.895210000000000
C       0.164930000000000      2.497160000000000      0.500960000000000
C      -1.987800000000000      1.551470000000000      0.948890000000000
O      -0.805700000000000      1.516540000000000      0.179110000000000
C       0.500690000000000      2.626560000000000      1.988410000000000
C      -2.824850000000000      2.789830000000000      0.669500000000000
H       1.099110000000000      2.173080000000000      0.001850000000000
H      -0.102440000000000      3.477500000000000      0.057610000000000
H      -2.588080000000000      0.671150000000000      0.649550000000000
H      -1.792460000000000      1.401980000000000      2.029010000000000
H      -3.793120000000000      2.700390000000000      1.203950000000000
H      -3.017420000000000      2.881430000000000     -0.419500000000000
H      -2.297740000000000      3.695630000000000      1.027320000000000
H       0.749790000000000      1.643000000000000      2.419360000000000
H      -0.345910000000000      3.074740000000000      2.546190000000000
H       1.385950000000000      3.282090000000000      2.110410000000000
H      -1.392750000000000      0.269290000000000     -3.093890000000000
C      -2.315540000000000     -1.658860000000000     -2.601360000000000
C      -1.091350000000000     -0.738210000000000     -2.743240000000000
C      -3.355430000000000     -1.218170000000000     -1.551970000000000
H      -2.810390000000000     -1.735740000000000     -3.591690000000000
H      -1.960100000000000     -2.669210000000000     -2.305820000000000
H      -4.185790000000000     -1.960110000000000     -1.550400000000000
H      -2.898560000000000     -1.232790000000000     -0.542040000000000
C      -3.960230000000000      0.158950000000000     -1.824730000000000
H      -0.366520000000000     -1.174230000000000     -3.456990000000000
H      -3.177640000000000      0.940840000000000     -1.789060000000000
H      -4.453790000000000      0.179270000000000     -2.818280000000000
H      -4.718760000000000      0.395440000000000     -1.046360000000000
C      -1.151440000000000     -1.289080000000000      2.799680000000000
C      -1.280160000000000     -2.193940000000000      1.771370000000000
C      -0.096850000000000     -2.175570000000000      1.054150000000000
C       0.715140000000000     -1.270750000000000      1.611630000000000
N       0.115310000000000     -0.692090000000000      2.747820000000000
C       2.070010000000000     -0.865390000000000      1.094420000000000
N       1.919670000000000     -0.327810000000000     -0.263790000000000
C       3.135940000000000     -0.000180000000000     -1.046510000000000
H      -2.161360000000000     -2.784370000000000      1.559770000000000
H      -1.908630000000000     -1.050910000000000      3.532820000000000
H       0.111820000000000     -2.751580000000000      0.160510000000000
H       2.737010000000000     -1.747130000000000      1.110060000000000
H       2.475840000000000     -0.075910000000000      1.761370000000000
C       3.924210000000000     -1.279770000000000     -1.388050000000000
C       2.710870000000000      0.682780000000000     -2.356890000000000
C       4.051490000000000      0.972210000000000     -0.264000000000000
H       3.293970000000000     -1.978280000000000     -1.976840000000000
H       4.831480000000000     -1.032080000000000     -1.981790000000000
H       4.271840000000000     -1.799790000000000     -0.472750000000000
H       2.171690000000000      1.631580000000000     -2.151770000000000
H       3.600730000000000      0.920290000000000     -2.982700000000000
H       2.041990000000000      0.017190000000000     -2.941550000000000
H       3.507710000000000      1.906160000000000     -0.006950000000000
H       4.423450000000000      0.513360000000000      0.675660000000000
H       4.942480000000000      1.249950000000000     -0.869190000000000
Na      3.113440000000000     -5.940470000000000      6.675740000000000
C       4.275370000000000     -5.444950000000000      3.674970000000000
C       1.971260000000000     -5.457830000000000      3.649220000000000
O       3.122680000000000     -6.152760000000000      4.078640000000000
C       5.513560000000000     -6.202160000000000      4.135060000000000
C       0.732470000000000     -6.219070000000000      4.099820000000000
H       4.320860000000000     -5.362880000000000      2.565020000000000
H       4.302030000000000     -4.434470000000000      4.142680000000000
H       1.928250000000000     -4.441690000000000      4.103640000000000
H       1.943530000000000     -5.390120000000000      2.537690000000000
H       0.714230000000000     -6.299480000000000      5.207690000000000
H      -0.180320000000000     -5.682700000000000      3.764070000000000
H       0.731180000000000     -7.239800000000000      3.661050000000000
H       5.532980000000000     -7.216080000000000      3.681780000000000
H       6.427160000000000     -5.652770000000000      3.823100000000000
H       5.514050000000000     -6.299100000000000      5.241600000000000
Na      3.156010000000000     -8.313980000000001      2.567970000000000
Mg     -1.308740000000000     -6.166570000000000      9.239830000000000
H      -4.273120000000000     -7.208120000000000      9.524590000000000
C      -3.952540000000000     -6.467670000000000     11.561900000000000
C      -3.463090000000000     -7.112230000000000     10.275679999999999
C      -4.535750000000000     -5.064770000000000     11.342940000000000
H      -4.739080000000000     -7.121720000000000     11.992630000000000
H      -3.111860000000000     -6.408490000000000     12.285530000000000
H      -5.385700000000000     -5.111920000000000     10.627820000000000
H      -4.921230000000000     -4.706510000000000     12.320710000000000
C      -3.506410000000000     -4.049150000000000     10.842350000000000
H      -3.017860000000000     -8.108510000000001     10.486280000000001
H      -3.152240000000000     -4.311160000000000      9.824990000000000
H      -3.978190000000000     -3.043740000000000     10.798320000000000
H      -2.638270000000000     -3.998060000000000     11.533799999999999
C      -1.871630000000000     -4.116360000000000      6.880490000000000
C      -1.097350000000000     -3.106370000000000      6.331540000000000
C       0.095560000000000     -3.086720000000000      7.036800000000000
C      -0.008010000000000     -4.067130000000000      7.996730000000000
N      -1.192800000000000     -4.691310000000000      7.881210000000000
C       1.011290000000000     -4.454680000000000      9.048140000000000
N       0.396100000000000     -5.376910000000000     10.025440000000000
C       1.158370000000000     -5.875100000000000     11.183650000000000
H      -1.368650000000000     -2.460290000000000      5.510960000000000
H      -2.865380000000000     -4.407850000000000      6.561060000000000
H       0.936170000000000     -2.423310000000000      6.877480000000000
H       1.869260000000000     -4.932060000000000      8.533010000000001
H       1.341890000000000     -3.535630000000000      9.568070000000001
C       1.510410000000000     -4.699960000000000     12.117080000000000
C       0.275430000000000     -6.866120000000000     11.962949999999999
C       2.439670000000000     -6.597290000000000     10.730650000000001
H       0.582810000000000     -4.182640000000000     12.447860000000000
H       2.052240000000000     -5.059560000000000     13.017580000000001
H       2.160730000000000     -3.959620000000000     11.609090000000000
H       0.002210000000000     -7.735810000000000     11.327900000000000
H       0.811320000000000     -7.245790000000000     12.861390000000000
H      -0.660190000000000     -6.373670000000000     12.302680000000001
H       2.188340000000000     -7.445320000000000     10.058389999999999
H       3.118990000000000     -5.904390000000000     10.192950000000000
H       2.992790000000000     -6.993500000000000     11.609610000000000

-C 0
6-31g(d,p)
****
-H 0
6-31g(d,p)
****
-Mg 0
6-31g(d,p)
****
-N 0
6-31+g(d,p)
****
-Na 0
6-31g(d,p)
****
-O 0
6-31+g(d,p)
****


