%chk=lowest10_c1_a2_speciation7_speciationDFT38_speciationDFT38_rank10_E222.00.chk
%nprocshared=20
%mem=40GB
#p opt=loose PM7/gen scf=xqc 

lowest10_c1_a2_speciation7_speciationDFT38_speciationDFT38_rank10_E222.00 DFT input

0 1
Mg      0.015620000000000      0.896250000000000      0.303890000000000
C      -1.892030000000000     -1.747120000000000     -0.185150000000000
C      -1.416380000000000     -0.679980000000000     -2.274200000000000
O      -1.422450000000000     -0.596180000000000     -0.865260000000000
C      -1.275990000000000     -3.073440000000000     -0.636280000000000
C      -2.819400000000000     -0.726280000000000     -2.859310000000000
H      -1.596030000000000     -1.614940000000000      0.874160000000000
H      -2.999910000000000     -1.788260000000000     -0.196910000000000
H      -0.933380000000000      0.244190000000000     -2.645280000000000
H      -0.771530000000000     -1.500850000000000     -2.645310000000000
H      -2.752530000000000     -0.664880000000000     -3.965270000000000
H      -3.417140000000000      0.129580000000000     -2.482630000000000
H      -3.318790000000000     -1.674680000000000     -2.580860000000000
H      -0.175020000000000     -3.013730000000000     -0.630740000000000
H      -1.630050000000000     -3.348460000000000     -1.650130000000000
H      -1.574240000000000     -3.876090000000000      0.067410000000000
H      -1.907960000000000      2.744410000000000      0.268810000000000
C      -0.254570000000000      3.736160000000000     -0.776610000000000
C      -0.808250000000000      2.853940000000000      0.355260000000000
C      -0.441430000000000      3.176750000000000     -2.201070000000000
H      -0.739370000000000      4.732370000000000     -0.711800000000000
H       0.837290000000000      3.864910000000000     -0.616070000000000
H      -0.004240000000000      3.904530000000000     -2.921550000000000
H       0.121240000000000      2.227600000000000     -2.308400000000000
C      -1.903140000000000      2.955920000000000     -2.589920000000000
H      -0.559850000000000      3.295840000000000      1.339310000000000
H      -2.370690000000000      2.199700000000000     -1.930570000000000
H      -2.473450000000000      3.905280000000000     -2.521620000000000
H      -1.959370000000000      2.582380000000000     -3.636100000000000
C       2.059220000000000     -1.005060000000000     -2.474250000000000
C       2.362880000000000      0.272370000000000     -2.068920000000000
C       2.330390000000000      0.291220000000000     -0.685060000000000
C       1.990530000000000     -0.934990000000000     -0.264660000000000
N       1.832870000000000     -1.814030000000000     -1.348190000000000
C       1.755540000000000     -1.331980000000000      1.171130000000000
N       0.664600000000000     -0.518570000000000      1.718310000000000
C       0.345680000000000     -0.620710000000000      3.163920000000000
H       2.564880000000000      1.109600000000000     -2.725550000000000
H       1.985390000000000     -1.345700000000000     -3.494810000000000
H       2.494540000000000      1.155900000000000     -0.057850000000000
H       2.693430000000000     -1.189480000000000      1.738940000000000
H       1.465110000000000     -2.404300000000000      1.190570000000000
C       1.502830000000000     -0.065560000000000      4.017180000000000
C      -0.919380000000000      0.204430000000000      3.449870000000000
C       0.071700000000000     -2.090080000000000      3.565600000000000
H       1.696440000000000      0.997730000000000      3.764720000000000
H       1.256570000000000     -0.134900000000000      5.099750000000000
H       2.436110000000000     -0.643610000000000      3.862780000000000
H      -1.786450000000000     -0.189940000000000      2.879210000000000
H      -1.174650000000000      0.168720000000000      4.533170000000000
H      -0.763240000000000      1.265700000000000      3.164150000000000
H      -0.761610000000000     -2.514550000000000      2.966160000000000
H       0.969000000000000     -2.726430000000000      3.418470000000000
H      -0.208240000000000     -2.160360000000000      4.639920000000000
Na     -9.026960000000001     -1.416370000000000    -12.932950000000000
C      -5.907830000000000     -0.751560000000000    -13.167380000000000
C      -6.523480000000000     -0.070820000000000    -11.009290000000000
O      -6.930740000000000     -0.205300000000000    -12.357550000000000
C      -5.988450000000000     -2.274650000000000    -13.188890000000001
C      -5.886180000000000      1.293740000000000    -10.760000000000000
H      -6.059250000000000     -0.379180000000000    -14.202780000000001
H      -4.891540000000000     -0.413320000000000    -12.863700000000000
H      -7.429930000000000     -0.156770000000000    -10.372820000000001
H      -5.838290000000000     -0.885300000000000    -10.684340000000001
H      -6.601150000000000      2.107040000000000    -11.002760000000000
H      -5.605990000000000      1.379040000000000     -9.689390000000000
H      -4.972790000000000      1.418450000000000    -11.377260000000000
H      -6.981720000000000     -2.599750000000000    -13.563280000000001
H      -5.203000000000000     -2.677780000000000    -13.861160000000000
H      -5.831510000000000     -2.689200000000000    -12.172269999999999
C      -8.568690000000000     -3.553920000000000    -10.366030000000000
C     -10.721100000000000     -3.822500000000000    -11.354799999999999
O      -9.541010000000000     -3.043600000000000    -11.260999999999999
C      -8.014180000000000     -4.920350000000000    -10.770420000000000
C     -11.509230000000001     -3.899260000000000    -10.047150000000000
H      -7.715970000000000     -2.843420000000000    -10.390560000000001
H      -8.929970000000001     -3.546740000000000     -9.317390000000000
H     -11.375740000000000     -3.313200000000000    -12.094260000000000
H     -10.522410000000001     -4.828000000000000    -11.779830000000000
H     -11.710270000000000     -2.876910000000000     -9.663539999999999
H     -12.476270000000000     -4.412160000000000    -10.232030000000000
H     -10.958230000000000     -4.484780000000000     -9.283880000000000
H      -7.631490000000000     -4.885690000000000    -11.812099999999999
H      -7.180810000000000     -5.189600000000000    -10.089330000000000
H      -8.788420000000000     -5.708700000000000    -10.680529999999999
Na     -7.845230000000000      1.923360000000000    -12.985429999999999
C     -10.549460000000000      0.680590000000000    -14.486350000000000
C     -10.942750000000000      1.202350000000000    -12.239129999999999
O      -9.984489999999999      0.801630000000000    -13.197329999999999
C      -9.421870000000000      0.612780000000000    -15.508559999999999
C     -11.812799999999999      0.034070000000000    -11.780040000000000
H     -11.135980000000000     -0.260170000000000    -14.559810000000001
H     -11.184290000000001      1.555880000000000    -14.751120000000000
H     -10.384490000000000      1.576480000000000    -11.354270000000000
H     -11.562550000000000      2.055680000000000    -12.593170000000001
H     -11.175940000000001     -0.780300000000000    -11.377400000000000
H     -12.500010000000000      0.378480000000000    -10.979110000000000
H     -12.423539999999999     -0.357460000000000    -12.618890000000000
H      -8.753670000000000     -0.247040000000000    -15.287730000000000
H      -9.842910000000000      0.487530000000000    -16.528230000000001
H      -8.824460000000000      1.547890000000000    -15.481520000000000
C      -8.277279999999999      4.819150000000000    -14.545710000000000
C      -6.276620000000000      3.874370000000000    -15.227010000000000
O      -7.455360000000000      3.678760000000000    -14.484320000000000
C      -9.516920000000001      4.556500000000000    -13.701169999999999
C      -5.448030000000000      2.599420000000000    -15.144510000000000
H      -7.756440000000000      5.709040000000000    -14.125489999999999
H      -8.606410000000000      5.010710000000000    -15.591640000000000
H      -6.510170000000000      4.064590000000000    -16.298800000000000
H      -5.673870000000000      4.707350000000000    -14.799960000000000
H      -6.024170000000000      1.747220000000000    -15.564380000000000
H      -4.506810000000000      2.716540000000000    -15.720649999999999
H      -5.197710000000000      2.375370000000000    -14.084840000000000
H      -9.225980000000000      4.359280000000000    -12.646739999999999
H     -10.194929999999999      5.434350000000000    -13.731220000000000
H     -10.059189999999999      3.671200000000000    -14.093050000000000
Mg     -0.153830000000000     -4.841410000000000     -9.939240000000000
C      -1.139980000000000     -5.002610000000000     -6.731050000000000
C       0.542750000000000     -3.325080000000000     -6.981790000000000
O      -0.131120000000000     -4.431560000000000     -7.546890000000000
C      -2.177060000000000     -4.012810000000000     -6.193630000000000
C       1.385070000000000     -3.699510000000000     -5.768360000000000
H      -1.695000000000000     -5.710090000000000     -7.379300000000000
H      -0.695990000000000     -5.611020000000000     -5.916850000000000
H       1.235760000000000     -2.943590000000000     -7.756870000000000
H      -0.142680000000000     -2.478860000000000     -6.776570000000000
H       1.972050000000000     -2.813560000000000     -5.451030000000000
H       2.085570000000000     -4.520380000000000     -6.026650000000000
H       0.737840000000000     -4.016330000000000     -4.926570000000000
H      -2.613350000000000     -3.423190000000000     -7.020400000000000
H      -1.726070000000000     -3.332230000000000     -5.443260000000000
H      -2.996490000000000     -4.571580000000000     -5.698160000000000
H       2.040150000000000     -6.393010000000000     -9.722149999999999
C       2.647660000000000     -4.819590000000000    -11.117599999999999
C       1.627220000000000     -5.840550000000000    -10.590490000000001
C       3.010920000000000     -3.695730000000000    -10.127500000000000
H       3.572000000000000     -5.357280000000000    -11.417090000000000
H       2.216510000000000     -4.335110000000000    -12.019769999999999
H       3.738120000000000     -3.016510000000000    -10.626289999999999
H       2.106800000000000     -3.099270000000000     -9.888159999999999
C       3.652540000000000     -4.194720000000000     -8.832830000000000
H       1.371950000000000     -6.565140000000000    -11.389170000000000
H       2.944900000000000     -4.829660000000000     -8.264889999999999
H       4.574100000000000     -4.773350000000000     -9.051310000000001
H       3.923870000000000     -3.325610000000000     -8.194110000000000
C      -1.014480000000000     -1.036850000000000     -9.208340000000000
C      -0.386280000000000     -1.448540000000000    -10.361590000000000
C      -1.069300000000000     -2.554500000000000    -10.832810000000000
C      -2.066520000000000     -2.821500000000000     -9.985110000000001
N      -2.106410000000000     -1.877880000000000     -8.938850000000000
C      -3.004850000000000     -3.992630000000000    -10.095390000000000
N      -2.224470000000000     -5.235310000000000    -10.009470000000000
C      -2.908680000000000     -6.530500000000000    -10.240510000000000
H       0.492930000000000     -0.994940000000000    -10.799480000000001
H      -0.713820000000000     -0.202970000000000     -8.589470000000000
H      -0.815380000000000     -3.133940000000000    -11.710830000000000
H      -3.547490000000000     -3.918510000000000    -11.057589999999999
H      -3.728280000000000     -3.946000000000000     -9.254470000000000
C      -3.391500000000000     -6.644760000000000    -11.700229999999999
C      -1.915270000000000     -7.669430000000000     -9.958259999999999
C      -4.116420000000000     -6.691170000000000     -9.287770000000000
H      -2.536930000000000     -6.548060000000000    -12.401980000000000
H      -3.880000000000000     -7.629480000000000    -11.871470000000000
H      -4.142830000000000     -5.865820000000000    -11.942860000000000
H      -1.563330000000000     -7.634700000000000     -8.905749999999999
H      -2.395990000000000     -8.659210000000000    -10.128000000000000
H      -1.033050000000000     -7.592350000000000    -10.627560000000001
H      -3.793820000000000     -6.618410000000000     -8.227440000000000
H      -4.885840000000000     -5.914440000000000     -9.473890000000001
H      -4.605060000000000     -7.679660000000000     -9.432779999999999

-C 0
6-31g(d,p)
****
-H 0
6-31g(d,p)
****
-Mg 0
6-31g(d,p)
****
-N 0
6-31+g(d,p)
****
-Na 0
6-31g(d,p)
****
-O 0
6-31+g(d,p)
****


