%chk=lowest10_c1_a2_speciation7_speciationDFT2_speciationDFT96_rank10_E229.92.chk
%nprocshared=20
%mem=40GB
#p opt=loose PM7/gen scf=xqc 

lowest10_c1_a2_speciation7_speciationDFT2_speciationDFT96_rank10_E229.92 DFT input

0 1
Mg      0.405080000000000     -0.300200000000000      0.197690000000000
C      -2.737750000000000     -1.068780000000000      1.523030000000000
C      -2.028780000000000      1.169550000000000      1.951570000000000
O      -1.857600000000000     -0.011110000000000      1.190510000000000
C      -4.200340000000000     -0.768870000000000      1.210850000000000
C      -1.732760000000000      0.987630000000000      3.437890000000000
H      -2.437080000000000     -1.933310000000000      0.892430000000000
H      -2.614400000000000     -1.404780000000000      2.570100000000000
H      -1.282780000000000      1.896400000000000      1.573390000000000
H      -3.014250000000000      1.643750000000000      1.768980000000000
H      -0.738540000000000      0.514370000000000      3.575390000000000
H      -1.727200000000000      1.981850000000000      3.931250000000000
H      -2.513110000000000      0.368480000000000      3.922210000000000
H      -4.317180000000000     -0.452260000000000      0.154990000000000
H      -4.799360000000000     -1.688850000000000      1.376580000000000
H      -4.588530000000000      0.021710000000000      1.882640000000000
H       0.153510000000000     -3.144690000000000      0.986240000000000
C       0.539830000000000     -2.279250000000000      2.967010000000000
C       0.783890000000000     -2.374610000000000      1.476810000000000
C       0.926050000000000     -3.592070000000000      3.625670000000000
H       1.143420000000000     -1.449790000000000      3.389610000000000
H      -0.530280000000000     -2.060860000000000      3.149320000000000
H       0.316180000000000     -4.412400000000000      3.188240000000000
H       2.001700000000000     -3.793970000000000      3.429920000000000
C       0.688480000000000     -3.532700000000000      5.125920000000000
H       1.859920000000000     -2.497960000000000      1.235380000000000
H       1.299520000000000     -2.722650000000000      5.578430000000000
H      -0.385920000000000     -3.342920000000000      5.335940000000000
H       0.980700000000000     -4.502690000000000      5.576270000000000
C       0.927170000000000      1.179790000000000     -4.454440000000000
C       2.193050000000000      1.600120000000000     -4.129740000000000
C       2.149250000000000      2.097990000000000     -2.833130000000000
C       0.899210000000000      1.967650000000000     -2.372450000000000
N       0.076660000000000      1.409520000000000     -3.369920000000000
C       0.333050000000000      2.392540000000000     -1.034120000000000
N       0.816770000000000      1.659640000000000      0.149850000000000
C       2.087460000000000      1.924210000000000      0.837050000000000
H       3.051910000000000      1.546620000000000     -4.784440000000000
H       0.615620000000000      0.739620000000000     -5.392830000000000
H       2.991870000000000      2.524550000000000     -2.315610000000000
H      -0.757780000000000      2.185310000000000     -1.082500000000000
H       0.429370000000000      3.480420000000000     -0.894910000000000
C       2.504820000000000      3.389820000000000      0.687390000000000
C       1.865980000000000      1.627960000000000      2.333530000000000
C       3.180730000000000      0.959910000000000      0.333090000000000
H       1.689150000000000      4.044550000000000      1.065640000000000
H       3.427250000000000      3.592730000000000      1.266480000000000
H       2.695850000000000      3.637530000000000     -0.372990000000000
H       1.544130000000000      0.576820000000000      2.476930000000000
H       2.799540000000000      1.781380000000000      2.916450000000000
H       1.072610000000000      2.281170000000000      2.755050000000000
H       2.906670000000000     -0.098210000000000      0.542660000000000
H       3.344240000000000      1.039850000000000     -0.750620000000000
H       4.144840000000000      1.168060000000000      0.843790000000000
C      -0.099820000000000     -1.750120000000000     -2.561490000000000
C      -2.048920000000000     -0.537900000000000     -2.011130000000000
O      -0.893140000000000     -1.195420000000000     -1.530580000000000
C       1.383550000000000     -1.619120000000000     -2.207670000000000
C      -3.123480000000000     -1.531290000000000     -2.400160000000000
H      -0.344430000000000     -2.827630000000000     -2.650060000000000
H      -0.253940000000000     -1.260370000000000     -3.547030000000000
H      -2.435040000000000      0.112740000000000     -1.201540000000000
H      -1.848630000000000      0.147320000000000     -2.850670000000000
H      -3.356930000000000     -2.189550000000000     -1.538700000000000
H      -4.034990000000000     -0.976640000000000     -2.704330000000000
H      -2.767430000000000     -2.142100000000000     -3.254190000000000
H       1.681280000000000     -0.558890000000000     -2.115820000000000
H       1.610560000000000     -2.119670000000000     -1.245080000000000
H       2.002590000000000     -2.083200000000000     -3.002780000000000
Na     -2.136370000000000     12.285230000000000     -3.627050000000000
C      -1.819580000000000     10.413710000000000     -6.193080000000000
C      -3.497490000000000     11.959519999999999     -6.739610000000000
O      -2.899750000000000     11.190709999999999     -5.713140000000000
C      -0.510970000000000     11.193500000000000     -6.111710000000000
C      -4.626800000000000     11.189430000000000     -7.419620000000000
H      -1.731270000000000      9.516780000000001     -5.544150000000000
H      -1.989780000000000     10.032170000000001     -7.224970000000000
H      -3.926410000000000     12.871600000000001     -6.272310000000000
H      -2.760600000000000     12.315289999999999     -7.493490000000000
H      -5.407220000000000     10.910650000000000     -6.681500000000000
H      -5.091300000000000     11.829319999999999     -8.198750000000000
H      -4.238850000000000     10.268630000000000     -7.901740000000000
H      -0.313970000000000     11.504260000000000     -5.064300000000000
H       0.325210000000000     10.550950000000000     -6.457630000000000
H      -0.553490000000000     12.096120000000001     -6.754690000000000
C      -1.268950000000000     15.069419999999999     -5.295430000000000
C      -1.144990000000000     15.394030000000001     -2.936880000000000
O      -1.565090000000000     14.564270000000000     -4.005700000000000
C       0.227880000000000     15.211810000000000     -5.573390000000000
C      -1.840610000000000     16.754999999999999     -2.909850000000000
H      -1.659120000000000     14.324870000000001     -6.020630000000000
H      -1.821860000000000     16.007280000000002     -5.507720000000000
H      -1.431630000000000     14.868729999999999     -2.000600000000000
H      -0.040280000000000     15.490159999999999     -2.895220000000000
H      -2.942470000000000     16.619499999999999     -2.930990000000000
H      -1.560500000000000     17.291110000000000     -1.979050000000000
H      -1.523300000000000     17.381160000000001     -3.767940000000000
H       0.746320000000000     14.249219999999999     -5.379550000000000
H       0.375260000000000     15.492780000000000     -6.637370000000000
H       0.675510000000000     16.011500000000002     -4.949540000000000
Na     -4.688020000000000     10.048280000000000     -4.608870000000000
C      -3.643720000000000     10.720940000000001     -1.524250000000000
C      -5.166620000000000     12.316380000000001     -2.308900000000000
O      -4.164140000000000     11.383430000000001     -2.658220000000000
C      -2.859990000000000      9.499420000000001     -1.988810000000000
C      -4.573420000000000     13.621650000000001     -1.782210000000000
H      -2.944310000000000     11.389830000000000     -0.978590000000000
H      -4.446830000000000     10.359810000000000     -0.843190000000000
H      -5.731990000000000     12.552230000000000     -3.235970000000000
H      -5.908860000000000     11.891629999999999     -1.597460000000000
H      -3.882990000000000     14.057539999999999     -2.533330000000000
H      -5.391620000000000     14.346390000000000     -1.587770000000000
H      -4.025040000000000     13.452220000000001     -0.833280000000000
H      -2.042910000000000      9.804420000000000     -2.677280000000000
H      -2.416660000000000      8.980119999999999     -1.113730000000000
H      -3.531840000000000      8.792809999999999     -2.519320000000000
C      -6.636490000000000      7.625930000000000     -3.460810000000000
C      -5.022500000000000      6.720410000000000     -4.852780000000000
O      -5.470330000000000      7.885500000000000     -4.203920000000000
C      -7.083310000000000      8.928310000000000     -2.810040000000000
C      -3.746570000000000      7.062090000000000     -5.610740000000000
H      -7.459400000000000      7.270730000000000     -4.121390000000000
H      -6.431600000000000      6.888630000000000     -2.652520000000000
H      -4.781390000000000      5.922870000000000     -4.114400000000000
H      -5.777490000000000      6.362830000000000     -5.588730000000000
H      -2.971440000000000      7.423130000000000     -4.901260000000000
H      -3.361990000000000      6.164580000000000     -6.138060000000000
H      -3.948950000000000      7.860680000000000     -6.357160000000000
H      -7.296750000000000      9.691390000000000     -3.589520000000000
H      -7.999390000000000      8.761810000000001     -2.206490000000000
H      -6.281470000000000      9.312040000000000     -2.145830000000000
Mg      4.368660000000000      8.636590000000000     -2.364660000000000
H       5.944200000000000      9.127730000000000     -4.957780000000000
C       5.616820000000000      6.960550000000000     -5.080540000000000
C       5.982090000000000      8.225149999999999     -4.314670000000000
C       4.163990000000000      6.947080000000000     -5.583890000000000
H       6.319690000000000      6.844390000000000     -5.931640000000000
H       5.744890000000000      6.093510000000000     -4.396730000000000
H       4.004460000000000      5.990920000000000     -6.128450000000000
H       3.461290000000000      6.974910000000000     -4.724220000000000
C       3.831690000000000      8.101760000000001     -6.527990000000000
H       6.990250000000000      8.137409999999999     -3.860720000000000
H       3.882890000000000      9.073100000000000     -5.993590000000000
H       4.531530000000000      8.112819999999999     -7.389510000000000
H       2.795520000000000      7.979300000000000     -6.908760000000000
C       2.048060000000000      6.479190000000000     -2.149120000000000
C       0.822570000000000      6.506060000000000     -1.501850000000000
C       0.716410000000000      7.747640000000000     -0.896070000000000
C       1.864890000000000      8.433700000000000     -1.215450000000000
N       2.666520000000000      7.651500000000000     -1.960610000000000
C       2.250420000000000      9.843819999999999     -0.816940000000000
N       3.444470000000000     10.271260000000000     -1.576130000000000
C       4.025030000000000     11.612410000000001     -1.386910000000000
H       0.090660000000000      5.714220000000000     -1.469770000000000
H       2.454760000000000      5.649530000000000     -2.716800000000000
H      -0.110630000000000      8.113379999999999     -0.300980000000000
H       2.446550000000000      9.845400000000000      0.275640000000000
H       1.405180000000000     10.517930000000000     -1.054950000000000
C       4.401820000000000     11.850650000000000      0.086720000000000
C       5.295730000000000     11.722690000000000     -2.249520000000000
C       3.019920000000000     12.681699999999999     -1.858930000000000
H       5.126350000000000     11.081720000000001      0.430430000000000
H       4.864780000000000     12.853590000000001      0.211240000000000
H       3.505650000000000     11.814570000000000      0.739410000000000
H       5.061230000000000     11.548760000000000     -3.321960000000000
H       5.747830000000000     12.735150000000001     -2.153310000000000
H       6.053130000000000     10.973830000000000     -1.933010000000000
H       2.753140000000000     12.512470000000000     -2.925490000000000
H       2.088500000000000     12.653980000000001     -1.257920000000000
H       3.452050000000000     13.700390000000001     -1.762300000000000

-C 0
6-31g(d,p)
****
-H 0
6-31g(d,p)
****
-Mg 0
6-31g(d,p)
****
-N 0
6-31+g(d,p)
****
-Na 0
6-31g(d,p)
****
-O 0
6-31+g(d,p)
****


