%chk=lowest10_c1_a2_speciation7_speciationDFT1_speciationDFT2_rank04_E222.02.chk
%nprocshared=20
%mem=40GB
#p opt=loose PM7/gen scf=xqc 

lowest10_c1_a2_speciation7_speciationDFT1_speciationDFT2_rank04_E222.02 DFT input

0 1
Mg      0.847170000000000     -0.358210000000000     -0.173720000000000
H       0.399420000000000     -3.332150000000000      0.030520000000000
C       1.550360000000000     -2.947770000000000      1.869540000000000
C       1.279710000000000     -2.757790000000000      0.383900000000000
C       0.434400000000000     -2.401040000000000      2.776750000000000
H       1.708930000000000     -4.028600000000000      2.061240000000000
H       2.484650000000000     -2.401060000000000      2.122790000000000
H       0.726150000000000     -2.607710000000000      3.829600000000000
H       0.345290000000000     -1.300250000000000      2.656900000000000
C      -0.932020000000000     -3.033820000000000      2.518520000000000
H       2.170660000000000     -3.002070000000000     -0.229990000000000
H      -1.303640000000000     -2.762290000000000      1.508540000000000
H      -0.870970000000000     -4.137850000000000      2.609830000000000
H      -1.662920000000000     -2.651560000000000      3.262720000000000
C       0.896710000000000      1.588130000000000      2.336850000000000
C       0.398060000000000      2.869640000000000      2.509000000000000
C      -0.204480000000000      3.229890000000000      1.313680000000000
C      -0.063190000000000      2.152650000000000      0.470940000000000
N       0.607880000000000      1.172620000000000      1.095060000000000
C      -0.539770000000000      2.027650000000000     -0.962370000000000
N      -0.421280000000000      0.626760000000000     -1.415190000000000
C      -0.857370000000000      0.234000000000000     -2.767830000000000
H       0.469960000000000      3.476560000000000      3.400280000000000
H       1.438970000000000      1.006980000000000      3.073520000000000
H      -0.697600000000000      4.164950000000000      1.084790000000000
H       0.090730000000000      2.698460000000000     -1.582010000000000
H      -1.598620000000000      2.340680000000000     -1.008200000000000
C      -0.145340000000000      1.072090000000000     -3.845510000000000
C      -0.518200000000000     -1.252110000000000     -2.988520000000000
C      -2.383990000000000      0.407970000000000     -2.882260000000000
H       0.956360000000000      0.953690000000000     -3.763590000000000
H      -0.461750000000000      0.748410000000000     -4.860740000000000
H      -0.397730000000000      2.147700000000000     -3.745950000000000
H      -1.008400000000000     -1.888190000000000     -2.220250000000000
H      -0.869450000000000     -1.587650000000000     -3.990350000000000
H       0.578710000000000     -1.419870000000000     -2.932910000000000
H      -2.895320000000000     -0.206870000000000     -2.109900000000000
H      -2.682220000000000      1.465700000000000     -2.737670000000000
H      -2.745760000000000      0.093410000000000     -3.883720000000000
Na     -5.169620000000000     -4.892630000000000     -0.101890000000000
C      -4.699790000000000     -7.813070000000000     -1.303290000000000
C      -7.013800000000000     -7.447480000000000     -1.425350000000000
O      -5.825250000000000     -7.209290000000000     -0.695430000000000
C      -4.050960000000000     -6.865240000000000     -2.307050000000000
C      -7.705440000000000     -8.723599999999999     -0.952280000000000
H      -3.960000000000000     -8.034530000000000     -0.505030000000000
H      -4.940920000000000     -8.789930000000000     -1.779620000000000
H      -7.697470000000000     -6.590430000000000     -1.246000000000000
H      -6.842900000000000     -7.482550000000000     -2.524200000000000
H      -7.955270000000000     -8.652979999999999      0.126790000000000
H      -8.646310000000000     -8.866059999999999     -1.524130000000000
H      -7.053630000000000     -9.606380000000000     -1.115590000000000
H      -3.746150000000000     -5.923790000000000     -1.803910000000000
H      -3.150400000000000     -7.346360000000000     -2.741860000000000
H      -4.755380000000000     -6.624250000000000     -3.128970000000000
C      -6.460830000000000     -3.700280000000000     -2.969370000000000
C      -5.828750000000000     -1.935640000000000     -1.496730000000000
O      -6.045200000000000     -3.325240000000000     -1.668130000000000
C      -5.429160000000000     -3.399120000000000     -4.057090000000000
C      -7.092440000000000     -1.094670000000000     -1.674400000000000
H      -6.592630000000000     -4.802460000000000     -2.950370000000000
H      -7.459670000000000     -3.286930000000000     -3.218320000000000
H      -5.494860000000000     -1.796520000000000     -0.446020000000000
H      -4.992450000000000     -1.565670000000000     -2.123990000000000
H      -7.900840000000000     -1.480120000000000     -1.018080000000000
H      -6.873590000000000     -0.042010000000000     -1.398220000000000
H      -7.430390000000000     -1.103210000000000     -2.730250000000000
H      -4.450010000000000     -3.850090000000000     -3.791520000000000
H      -5.775620000000000     -3.833620000000000     -5.017120000000000
H      -5.311840000000000     -2.306770000000000     -4.205890000000000
Na     -6.305060000000000     -7.787830000000000      1.576500000000000
C      -4.907240000000000     -5.075420000000000      2.905440000000000
C      -7.196160000000000     -4.786720000000000      2.508490000000000
O      -6.011060000000000     -5.441330000000000      2.103310000000000
C      -3.777880000000000     -6.068980000000000      2.663450000000000
C      -7.259490000000000     -3.350380000000000      1.993000000000000
H      -4.543070000000000     -4.066000000000000      2.617440000000000
H      -5.148460000000000     -5.106450000000000      3.991760000000000
H      -8.047409999999999     -5.343880000000000      2.061570000000000
H      -7.346600000000000     -4.829920000000000      3.609840000000000
H      -7.167710000000000     -3.337440000000000      0.887430000000000
H      -8.234410000000000     -2.900260000000000      2.274770000000000
H      -6.450230000000000     -2.735230000000000      2.436410000000000
H      -3.499430000000000     -6.080480000000000      1.587860000000000
H      -2.887650000000000     -5.782660000000000      3.261710000000000
H      -4.095580000000000     -7.089580000000000      2.963020000000000
C      -6.220310000000000     -9.315140000000000      4.517330000000000
C      -4.877620000000000    -10.459800000000000      3.017740000000000
O      -5.655820000000000     -9.306990000000001      3.228600000000000
C      -7.070060000000000     -8.060650000000001      4.670330000000000
C      -4.274010000000000    -10.374079999999999      1.622230000000000
H      -6.882660000000000    -10.199190000000000      4.656850000000000
H      -5.424600000000000     -9.290130000000000      5.295250000000000
H      -4.042210000000000    -10.514160000000000      3.751610000000000
H      -5.507510000000000    -11.376469999999999      3.067050000000000
H      -3.637980000000000     -9.466650000000000      1.541440000000000
H      -3.651190000000000    -11.269650000000000      1.418390000000000
H      -5.081580000000000    -10.314510000000000      0.860590000000000
H      -7.877460000000000     -8.050630000000000      3.906520000000000
H      -7.527520000000000     -8.027360000000000      5.680690000000000
H      -6.438390000000000     -7.158680000000000      4.533080000000000
Mg    -12.697070000000000     -6.660500000000000     -5.687910000000000
H     -12.053750000000001     -4.086510000000000     -7.262580000000000
C     -10.040910000000000     -4.861370000000000     -6.903610000000000
C     -11.464600000000001     -4.578470000000000     -6.461420000000000
C      -9.329260000000000     -3.547360000000000     -7.212210000000000
H      -9.508990000000001     -5.403230000000000     -6.091350000000000
H     -10.065840000000000     -5.510460000000000     -7.806330000000000
H      -9.879090000000000     -3.011480000000000     -8.016510000000000
H      -9.317769999999999     -2.912950000000000     -6.298890000000000
C      -7.897840000000000     -3.789580000000000     -7.666810000000000
H     -11.489310000000000     -3.984390000000000     -5.524000000000000
H      -7.326690000000000     -4.312360000000000     -6.871550000000000
H      -7.887620000000000     -4.405160000000000     -8.591210000000000
H      -7.413450000000000     -2.813670000000000     -7.877900000000000
C     -15.853719999999999     -6.435800000000000     -5.886000000000000
C     -16.854299999999999     -7.386800000000000     -5.771340000000000
C     -16.230119999999999     -8.604320000000000     -5.544260000000000
C     -14.876849999999999     -8.347550000000000     -5.544860000000000
N     -14.663390000000000     -7.038900000000000     -5.740880000000000
C     -13.742720000000000     -9.337980000000000     -5.347550000000000
N     -12.444870000000000     -8.674149999999999     -5.594640000000000
C     -11.174260000000000     -9.413660000000000     -5.493370000000000
H     -17.919509999999999     -7.213690000000000     -5.841230000000000
H     -15.991059999999999     -5.375920000000000     -6.059430000000000
H     -16.706469999999999     -9.564920000000001     -5.404430000000000
H     -13.875870000000001    -10.167460000000000     -6.067650000000000
H     -13.800820000000000     -9.717829999999999     -4.307180000000000
C     -11.119479999999999    -10.504030000000000     -6.580250000000000
C     -10.011189999999999     -8.432570000000000     -5.728000000000000
C     -11.018300000000000    -10.041580000000000     -4.097160000000000
H     -11.222989999999999    -10.045700000000000     -7.588450000000000
H     -10.153940000000000    -11.051800000000000     -6.540760000000000
H     -11.932810000000000    -11.245900000000001     -6.448570000000000
H     -10.009679999999999     -7.632150000000000     -4.957610000000000
H      -9.034300000000000     -8.963469999999999     -5.677200000000000
H     -10.092840000000001     -7.957150000000000     -6.728980000000000
H     -11.060560000000001     -9.254460000000000     -3.313780000000000
H     -11.819850000000001    -10.782959999999999     -3.901810000000000
H     -10.044359999999999    -10.570460000000001     -4.015010000000000

-C 0
6-31g(d,p)
****
-H 0
6-31g(d,p)
****
-Mg 0
6-31g(d,p)
****
-N 0
6-31+g(d,p)
****
-Na 0
6-31g(d,p)
****
-O 0
6-31+g(d,p)
****


