%chk=lowest10_c1_a2_speciation7_speciationDFT2_speciationDFT38_rank08_E222.27.chk
%nprocshared=20
%mem=40GB
#p opt=loose PM7/gen scf=xqc 

lowest10_c1_a2_speciation7_speciationDFT2_speciationDFT38_rank08_E222.27 DFT input

0 1
Mg     -0.668290000000000     -0.520060000000000     -0.539390000000000
C       2.060100000000000     -0.795430000000000      1.317130000000000
C       2.621610000000000      0.068270000000000     -0.842380000000000
O       1.666270000000000     -0.576140000000000     -0.026480000000000
C       2.628870000000000      0.427240000000000      2.041080000000000
C       3.845750000000000     -0.797120000000000     -1.103430000000000
H       1.137060000000000     -1.074010000000000      1.862900000000000
H       2.742020000000000     -1.666550000000000      1.392250000000000
H       2.133820000000000      0.253080000000000     -1.818710000000000
H       2.884560000000000      1.076570000000000     -0.466090000000000
H       4.497300000000000     -0.288260000000000     -1.843830000000000
H       3.536610000000000     -1.782560000000000     -1.509240000000000
H       4.417100000000000     -0.947410000000000     -0.166560000000000
H       1.942140000000000      1.286300000000000      1.952340000000000
H       3.623690000000000      0.699590000000000      1.634810000000000
H       2.746240000000000      0.195570000000000      3.118670000000000
H      -0.411860000000000     -2.806970000000000     -1.903480000000000
C      -1.181780000000000     -1.411210000000000     -3.408450000000000
C      -1.167050000000000     -1.999730000000000     -1.987720000000000
C       0.124150000000000     -0.719610000000000     -3.847790000000000
H      -1.419940000000000     -2.225740000000000     -4.123860000000000
H      -1.989240000000000     -0.649770000000000     -3.461070000000000
H      -0.015630000000000     -0.339210000000000     -4.884780000000000
H       0.322430000000000      0.156450000000000     -3.197800000000000
C       1.341780000000000     -1.643690000000000     -3.850560000000000
H      -2.165370000000000     -2.406630000000000     -1.734740000000000
H       1.555950000000000     -2.008440000000000     -2.827510000000000
H       1.173070000000000     -2.510750000000000     -4.522160000000000
H       2.233450000000000     -1.084590000000000     -4.210460000000000
C       0.857130000000000      3.102320000000000     -0.892450000000000
C      -0.201910000000000      2.657540000000000     -1.650090000000000
C      -1.087010000000000      2.027560000000000     -0.795030000000000
C      -0.571960000000000      2.059760000000000      0.437550000000000
N       0.653540000000000      2.757040000000000      0.451540000000000
C      -1.174680000000000      1.408430000000000      1.653880000000000
N      -1.278510000000000     -0.037960000000000      1.416540000000000
C      -1.981340000000000     -0.882210000000000      2.413050000000000
H      -0.301440000000000      2.766540000000000     -2.721050000000000
H       1.727240000000000      3.623870000000000     -1.266190000000000
H      -2.011460000000000      1.542340000000000     -1.083080000000000
H      -2.166730000000000      1.859810000000000      1.843180000000000
H      -0.506030000000000      1.595810000000000      2.520110000000000
C      -3.484140000000000     -0.541750000000000      2.455610000000000
C      -1.821170000000000     -2.357900000000000      2.011360000000000
C      -1.373030000000000     -0.692370000000000      3.823290000000000
H      -3.946560000000000     -0.696490000000000      1.458550000000000
H      -4.008770000000000     -1.187280000000000      3.194150000000000
H      -3.654570000000000      0.508240000000000      2.768230000000000
H      -0.750430000000000     -2.651650000000000      2.002830000000000
H      -2.354080000000000     -3.020140000000000      2.730610000000000
H      -2.242720000000000     -2.533540000000000      0.999560000000000
H      -0.289230000000000     -0.935870000000000      3.821260000000000
H      -1.497670000000000      0.350080000000000      4.183250000000000
H      -1.872770000000000     -1.356940000000000      4.561990000000000
Na      1.592590000000000     12.279930000000000     -0.846920000000000
C      -0.348710000000000     14.530010000000001     -2.028110000000000
C       1.715210000000000     15.604410000000000     -1.731370000000000
O       0.824090000000000     14.620060000000000     -1.242340000000000
C      -0.166780000000000     13.524440000000000     -3.160600000000000
C       1.437270000000000     16.964359999999999     -1.095670000000000
H      -1.170460000000000     14.172070000000000     -1.372420000000000
H      -0.678330000000000     15.516900000000000     -2.424430000000000
H       2.745760000000000     15.292770000000001     -1.457650000000000
H       1.700450000000000     15.683690000000000     -2.841240000000000
H       1.535860000000000     16.905380000000001      0.007990000000000
H       2.171480000000000     17.705359999999999     -1.475110000000000
H       0.415640000000000     17.314430000000002     -1.349780000000000
H       0.091000000000000     12.526180000000000     -2.749180000000000
H      -1.111240000000000     13.440530000000001     -3.737390000000000
H       0.640300000000000     13.851950000000000     -3.847190000000000
C       3.722060000000000     12.485960000000000     -3.460970000000000
C       4.086670000000000     10.505860000000000     -2.185530000000000
O       3.446790000000000     11.767280000000000     -2.271580000000000
C       3.226150000000000     11.791869999999999     -4.730220000000000
C       5.612490000000000     10.595480000000000     -2.149900000000000
H       3.167610000000000     13.444640000000000     -3.383620000000000
H       4.792250000000000     12.768330000000001     -3.533740000000000
H       3.768910000000000     10.057490000000000     -1.219820000000000
H       3.729460000000000      9.804570000000000     -2.967740000000000
H       5.934290000000000     11.285310000000001     -1.341560000000000
H       6.034190000000000      9.587540000000001     -1.953610000000000
H       6.014130000000000     10.944530000000000     -3.122500000000000
H       2.146260000000000     11.550840000000001     -4.637460000000000
H       3.370940000000000     12.470840000000001     -5.596650000000000
H       3.801500000000000     10.865600000000001     -4.930380000000000
Na      0.579020000000000     15.073420000000000      1.104320000000000
C       0.907620000000000     11.894209999999999      2.067080000000000
C       2.941980000000000     13.050689999999999      2.093470000000000
O       1.666470000000000     12.939450000000001      1.495030000000000
C      -0.547990000000000     12.062740000000000      1.650020000000000
C       3.917910000000000     12.008390000000000      1.551650000000000
H       1.261800000000000     10.912110000000000      1.686950000000000
H       0.937490000000000     11.913790000000001      3.179760000000000
H       3.340030000000000     14.054800000000000      1.832750000000000
H       2.891730000000000     13.020890000000000      3.204530000000000
H       3.994720000000000     12.095840000000001      0.448320000000000
H       4.922010000000000     12.177930000000000      1.993740000000000
H       3.588590000000000     10.983200000000000      1.817150000000000
H      -0.635740000000000     12.048950000000000      0.542470000000000
H      -1.158540000000000     11.235870000000000      2.068830000000000
H      -0.945140000000000     13.027030000000000      2.030130000000000
C      -0.801080000000000     15.840800000000000      4.021310000000000
C      -2.351910000000000     16.174460000000000      2.335670000000000
O      -1.074800000000000     15.675530000000000      2.651010000000000
C       0.601180000000000     15.312709999999999      4.292510000000000
C      -2.598280000000000     15.941630000000000      0.851170000000000
H      -0.824570000000000     16.917110000000001      4.305630000000000
H      -1.516730000000000     15.252920000000000      4.638760000000000
H      -3.140770000000000     15.632870000000000      2.904740000000000
H      -2.407190000000000     17.269680000000001      2.528170000000000
H      -2.549540000000000     14.854590000000000      0.626520000000000
H      -3.599970000000000     16.324069999999999      0.564950000000000
H      -1.825260000000000     16.467230000000001      0.249560000000000
H       1.345150000000000     15.877549999999999      3.690190000000000
H       0.850200000000000     15.420349999999999      5.368460000000000
H       0.659580000000000     14.239440000000000      4.016600000000000
Mg     -4.287200000000000      8.297359999999999     -3.344330000000000
H      -4.618840000000000      9.288169999999999     -6.246090000000000
C      -6.467890000000000     10.049899999999999     -5.343740000000000
C      -5.426660000000000      8.959780000000000     -5.561100000000000
C      -5.911620000000000     11.294320000000001     -4.632560000000000
H      -6.901300000000000     10.330780000000001     -6.326280000000000
H      -7.278250000000000      9.631320000000001     -4.708270000000000
H      -6.745030000000000     12.022309999999999     -4.524590000000000
H      -5.554990000000000     11.025589999999999     -3.615610000000000
C      -4.772240000000000     11.974760000000000     -5.390200000000000
H      -5.896760000000000      8.039260000000001     -5.963410000000000
H      -3.881190000000000     11.314830000000001     -5.435800000000000
H      -5.093600000000000     12.238910000000001     -6.419370000000000
H      -4.478500000000000     12.903470000000000     -4.856560000000000
C      -5.303290000000000      9.958660000000000     -0.840660000000000
C      -4.754420000000000     10.171930000000000      0.415250000000000
C      -3.544450000000000      9.496119999999999      0.439270000000000
C      -3.394430000000000      8.919200000000000     -0.799740000000000
N      -4.474460000000000      9.196730000000001     -1.558540000000000
C      -2.243390000000000      8.079079999999999     -1.309500000000000
N      -2.380700000000000      7.870130000000000     -2.766070000000000
C      -1.386960000000000      7.088090000000000     -3.520540000000000
H      -5.186930000000000     10.747420000000000      1.219690000000000
H      -6.255600000000000     10.339810000000000     -1.195400000000000
H      -2.845460000000000      9.441330000000001      1.265640000000000
H      -2.257310000000000      7.113610000000000     -0.760760000000000
H      -1.298770000000000      8.620160000000000     -1.105380000000000
C      -1.249930000000000      5.666840000000000     -2.947790000000000
C      -1.850710000000000      6.991570000000000     -4.985340000000000
C      -0.024820000000000      7.808770000000000     -3.484670000000000
H      -2.228370000000000      5.140990000000000     -2.971990000000000
H      -0.518390000000000      5.082110000000000     -3.545850000000000
H      -0.883010000000000      5.690010000000000     -1.901140000000000
H      -1.966320000000000      8.003740000000001     -5.429720000000000
H      -1.110090000000000      6.427270000000000     -5.594840000000000
H      -2.828050000000000      6.467360000000000     -5.055000000000000
H      -0.123170000000000      8.834660000000000     -3.903050000000000
H       0.361950000000000      7.889710000000000     -2.448530000000000
H       0.730170000000000      7.256070000000000     -4.083360000000000

-C 0
6-31g(d,p)
****
-H 0
6-31g(d,p)
****
-Mg 0
6-31g(d,p)
****
-N 0
6-31+g(d,p)
****
-Na 0
6-31g(d,p)
****
-O 0
6-31+g(d,p)
****


