%chk=lowest10_c1_a2_speciation0_speciationDFT1_speciationDFT36_rank04_E181.20.chk
%nprocshared=20
%mem=40GB
#p opt=loose PM7/gen scf=xqc 

lowest10_c1_a2_speciation0_speciationDFT1_speciationDFT36_rank04_E181.20 DFT input

0 1
Mg     -0.717710000000000      0.273540000000000     -0.231010000000000
C       1.763480000000000     -1.884370000000000      1.587570000000000
C       1.178640000000000     -2.951970000000000     -0.371090000000000
O       0.692550000000000     -2.189630000000000      0.715410000000000
C       1.215260000000000     -1.456620000000000      2.940240000000000
C       0.052140000000000     -3.207660000000000     -1.363460000000000
H       2.414940000000000     -2.767400000000000      1.772480000000000
H       2.374170000000000     -1.056660000000000      1.171500000000000
H       1.997800000000000     -2.421350000000000     -0.900310000000000
H       1.551340000000000     -3.937320000000000     -0.019950000000000
H      -0.336130000000000     -2.251990000000000     -1.769880000000000
H       0.429530000000000     -3.823030000000000     -2.207480000000000
H      -0.776250000000000     -3.751750000000000     -0.864030000000000
H       0.598920000000000     -2.266730000000000      3.377190000000000
H       2.052220000000000     -1.212700000000000      3.626840000000000
H       0.584010000000000     -0.562440000000000      2.842200000000000
H      -2.744490000000000     -2.131940000000000     -0.737120000000000
C      -3.270080000000000     -0.226210000000000     -1.713880000000000
C      -2.798150000000000     -1.047540000000000     -0.519860000000000
C      -2.357250000000000     -0.416760000000000     -2.933290000000000
H      -4.301970000000000     -0.549010000000000     -1.958610000000000
H      -3.280780000000000      0.851140000000000     -1.434480000000000
H      -1.334820000000000     -0.036660000000000     -2.713770000000000
H      -2.287700000000000     -1.496330000000000     -3.185330000000000
C      -2.913280000000000      0.325400000000000     -4.146580000000000
H      -3.411400000000000     -0.844830000000000      0.381730000000000
H      -3.927240000000000     -0.057570000000000     -4.391370000000000
H      -2.975410000000000      1.415820000000000     -3.944510000000000
H      -2.254350000000000      0.161770000000000     -5.025490000000000
C       1.775850000000000     -0.184440000000000     -2.123090000000000
C       3.075480000000000      0.282690000000000     -2.039160000000000
C       3.139090000000000      1.087240000000000     -0.910790000000000
C       1.884460000000000      1.064890000000000     -0.347120000000000
N       1.078120000000000      0.287220000000000     -1.081760000000000
C       1.397040000000000      1.800220000000000      0.888890000000000
N       0.089870000000000      1.268750000000000      1.340270000000000
C      -0.739800000000000      2.073890000000000      2.259190000000000
H       3.882190000000000      0.062810000000000     -2.723090000000000
H       1.377050000000000     -0.840530000000000     -2.888950000000000
H       4.002350000000000      1.619410000000000     -0.536500000000000
H       2.130100000000000      1.667140000000000      1.709710000000000
H       1.327560000000000      2.870740000000000      0.614320000000000
C      -1.346290000000000      3.289100000000000      1.535090000000000
C      -1.894770000000000      1.192640000000000      2.779080000000000
C       0.102900000000000      2.533930000000000      3.465410000000000
H      -1.996380000000000      2.958410000000000      0.696550000000000
H      -1.963960000000000      3.885770000000000      2.241810000000000
H      -0.561320000000000      3.958060000000000      1.131900000000000
H      -1.513250000000000      0.303150000000000      3.322970000000000
H      -2.543200000000000      1.764540000000000      3.479490000000000
H      -2.526950000000000      0.837930000000000      1.938600000000000
H       0.550820000000000      1.654470000000000      3.977540000000000
H       0.924430000000000      3.206010000000000      3.141780000000000
H      -0.521750000000000      3.086630000000000      4.198300000000000
Na    -15.356500000000000      0.072830000000000      8.020020000000001
C     -13.075070000000000     -1.512560000000000      6.278640000000000
C     -12.122949999999999     -0.506400000000000      8.118819999999999
O     -12.961000000000000     -0.305370000000000      7.000960000000000
C     -13.968360000000001     -1.287240000000000      5.067250000000000
C     -12.016349999999999      0.794260000000000      8.902139999999999
H     -12.080430000000000     -1.846690000000000      5.908080000000000
H     -13.544230000000001     -2.305160000000000      6.904900000000000
H     -12.549670000000001     -1.277890000000000      8.799799999999999
H     -11.096439999999999     -0.794720000000000      7.796070000000000
H     -13.021240000000001      1.113070000000000      9.252290000000000
H     -11.358850000000000      0.647870000000000      9.785230000000000
H     -11.584650000000000      1.592230000000000      8.261340000000001
H     -13.529970000000000     -0.507630000000000      4.408620000000000
H     -14.063890000000001     -2.231780000000000      4.490740000000000
H     -14.979179999999999     -0.961780000000000      5.392990000000000
Na    -11.518670000000000      1.239310000000000      5.425860000000000
Mg     -5.441600000000000     -1.468120000000000      5.784550000000000
H      -2.394950000000000     -1.841510000000000      5.444880000000000
C      -3.132760000000000     -3.750370000000000      4.674400000000000
C      -3.171070000000000     -2.602810000000000      5.666560000000000
C      -1.789660000000000     -4.467740000000000      4.772110000000000
H      -3.960990000000000     -4.456150000000000      4.902920000000000
H      -3.283110000000000     -3.346030000000000      3.649360000000000
H      -0.972740000000000     -3.747260000000000      4.554220000000000
H      -1.656570000000000     -4.860230000000000      5.804010000000000
C      -1.707740000000000     -5.623740000000000      3.786300000000000
H      -3.088610000000000     -2.966450000000000      6.712330000000000
H      -2.504920000000000     -6.367310000000000      3.999500000000000
H      -1.819820000000000     -5.250010000000000      2.746300000000000
H      -0.718820000000000     -6.117180000000000      3.886990000000000
C      -5.331320000000000      1.519250000000000      6.840590000000000
C      -6.281130000000000      2.527340000000000      6.854680000000000
C      -7.426140000000000      2.012330000000000      6.265180000000000
C      -7.121890000000000      0.718610000000000      5.903420000000000
N      -5.863740000000000      0.430280000000000      6.263620000000000
C      -8.023440000000001     -0.289270000000000      5.212540000000000
N      -7.247030000000000     -1.495360000000000      4.853540000000000
C      -7.873160000000000     -2.628160000000000      4.149480000000000
H      -6.156320000000000      3.525080000000000      7.252880000000000
H      -4.323010000000000      1.580130000000000      7.230070000000000
H      -8.366210000000001      2.523450000000000      6.110100000000000
H      -8.426570000000000      0.176740000000000      4.293560000000000
H      -8.848220000000000     -0.541790000000000      5.910000000000000
C      -8.322440000000000     -2.183230000000000      2.744890000000000
C      -6.831420000000000     -3.751100000000000      3.995100000000000
C      -9.071780000000000     -3.169600000000000      4.947400000000000
H      -7.452060000000000     -1.800930000000000      2.167400000000000
H      -8.768750000000001     -3.033440000000000      2.186410000000000
H      -9.084920000000000     -1.380310000000000      2.801150000000000
H      -6.486140000000000     -4.107170000000000      4.989130000000000
H      -7.267250000000000     -4.617590000000000      3.449200000000000
H      -5.948160000000000     -3.393390000000000      3.423620000000000
H      -8.748300000000000     -3.486660000000000      5.962180000000000
H      -9.860120000000000     -2.397480000000000      5.049430000000000
H      -9.522209999999999     -4.043440000000000      4.429360000000000

-C 0
6-31g(d,p)
****
-H 0
6-31g(d,p)
****
-Mg 0
6-31g(d,p)
****
-N 0
6-31+g(d,p)
****
-Na 0
6-31g(d,p)
****
-O 0
6-31+g(d,p)
****


