%chk=lowest10_c1_a2_speciation7_speciationDFT37b_speciationDFT38_rank09_E204.17.chk
%nprocshared=20
%mem=40GB
#p opt=loose PM7/gen scf=xqc 

lowest10_c1_a2_speciation7_speciationDFT37b_speciationDFT38_rank09_E204.17 DFT input

0 1
Mg     -0.783490000000000     -0.459000000000000      0.305480000000000
C       2.459680000000000     -0.790040000000000     -0.183430000000000
C       1.297000000000000     -0.912480000000000     -2.271880000000000
O       1.227880000000000     -0.959080000000000     -0.863000000000000
C       3.300070000000000      0.406730000000000     -0.634690000000000
C       2.038310000000000     -2.104740000000000     -2.856770000000000
H       2.197530000000000     -0.599740000000000      0.875880000000000
H       3.049420000000000     -1.728800000000000     -0.195590000000000
H       0.255170000000000     -0.955980000000000     -2.643000000000000
H       1.685450000000000      0.056300000000000     -2.643100000000000
H       1.951320000000000     -2.077950000000000     -3.962690000000000
H       1.596120000000000     -3.050260000000000     -2.480160000000000
H       3.109480000000000     -2.063010000000000     -2.578720000000000
H       2.697900000000000      1.330370000000000     -0.629290000000000
H       3.715240000000000      0.237490000000000     -1.648480000000000
H       4.144540000000000      0.549910000000000      0.068680000000000
H      -1.421940000000000     -3.049120000000000      0.269080000000000
C      -3.107600000000000     -2.113130000000000     -0.776290000000000
C      -2.066750000000000     -2.151580000000000      0.355650000000000
C      -2.529790000000000     -1.995300000000000     -2.200780000000000
H      -3.727930000000000     -3.031090000000000     -0.711550000000000
H      -3.765030000000000     -1.231930000000000     -0.615770000000000
H      -3.378650000000000     -1.980550000000000     -2.921260000000000
H      -1.989180000000000     -1.033430000000000     -2.308140000000000
C      -1.607770000000000     -3.150820000000000     -2.589640000000000
H      -2.573700000000000     -2.157600000000000      1.339650000000000
H      -0.719120000000000     -3.177710000000000     -1.930280000000000
H      -2.144800000000000     -4.119390000000000     -2.521380000000000
H      -1.256140000000000     -3.012760000000000     -3.635810000000000
C      -0.158080000000000      2.262590000000000     -2.474130000000000
C      -1.416190000000000      1.886070000000000     -2.068780000000000
C      -1.416580000000000      1.847670000000000     -0.684700000000000
C      -0.184680000000000      2.166530000000000     -0.263930000000000
N       0.655240000000000      2.470210000000000     -1.347190000000000
C       0.276470000000000      2.161360000000000      1.172470000000000
N       0.117780000000000      0.810020000000000      1.720120000000000
C       0.365900000000000      0.584570000000000      3.166020000000000
H      -2.242480000000000      1.642630000000000     -2.725400000000000
H       0.174930000000000      2.370520000000000     -3.495290000000000
H      -2.247510000000000      1.557300000000000     -0.057820000000000
H      -0.315940000000000      2.902390000000000      1.740150000000000
H       1.350330000000000      2.446230000000000      1.191840000000000
C      -0.693150000000000      1.308710000000000      4.019930000000000
C       0.284140000000000     -0.923430000000000      3.451410000000000
C       1.775230000000000      1.081670000000000      3.568280000000000
H      -1.710830000000000      0.944850000000000      3.767510000000000
H      -0.509500000000000      1.129900000000000      5.102390000000000
H      -0.659260000000000      2.405970000000000      3.865300000000000
H       1.059270000000000     -1.477060000000000      2.880840000000000
H       0.443250000000000     -1.126000000000000      4.533880000000000
H      -0.713080000000000     -1.318940000000000      3.166100000000000
H       2.559500000000000      0.572320000000000      2.968810000000000
H       1.877670000000000      2.176920000000000      3.421050000000000
H       1.975530000000000      0.874010000000000      4.642670000000000
Na      0.427040000000000     -1.190550000000000     10.784780000000000
C       1.886880000000000      0.002210000000000      8.201730000000000
C       1.386970000000000     -2.223420000000000      7.657940000000000
O       1.753860000000000     -1.320910000000000      8.683750000000000
C       0.557440000000000      0.745210000000000      8.283230000000000
C       2.618860000000000     -2.815200000000000      6.977810000000000
H       2.620320000000000      0.527340000000000      8.849610000000000
H       2.301120000000000      0.044800000000000      7.169350000000000
H       0.811810000000000     -3.050850000000000      8.125370000000000
H       0.709340000000000     -1.763820000000000      6.905630000000000
H       3.251130000000000     -3.349640000000000      7.716940000000000
H       2.298060000000000     -3.539040000000000      6.199910000000000
H       3.221160000000000     -2.018540000000000      6.494670000000000
H       0.190430000000000      0.759080000000000      9.330900000000000
H       0.695680000000000      1.790810000000000      7.938220000000000
H      -0.203020000000000      0.257420000000000      7.640230000000000
C      -2.420790000000000     -1.849850000000000      9.107450000000000
C      -2.763310000000000     -1.904240000000000     11.466580000000000
O      -1.834640000000000     -1.853680000000000     10.397290000000000
C      -3.290600000000000     -0.623560000000000      8.828150000000001
C      -3.592950000000000     -3.187760000000000     11.495730000000000
H      -1.581370000000000     -1.817550000000000      8.381500000000001
H      -2.958550000000000     -2.796630000000000      8.896080000000000
H      -2.165720000000000     -1.887390000000000     12.403420000000001
H      -3.400480000000000     -0.996750000000000     11.506489999999999
H      -2.923900000000000     -4.073670000000000     11.477670000000000
H      -4.198470000000000     -3.211180000000000     12.425879999999999
H      -4.292770000000000     -3.228970000000000     10.636790000000000
H      -2.714150000000000      0.305920000000000      9.019280000000000
H      -3.608990000000000     -0.637370000000000      7.764540000000000
H      -4.206360000000000     -0.632560000000000      9.452980000000000
Na      3.638250000000000     -2.311530000000000      9.788500000000001
C       2.533620000000000     -1.733420000000000     12.881150000000000
C       1.914470000000000     -3.849850000000000     12.097479999999999
O       2.222110000000000     -2.515930000000000     11.747010000000000
C       3.199680000000000     -0.444740000000000     12.415730000000000
C       0.485800000000000     -3.986300000000000     12.619339999999999
H       1.603970000000000     -1.462030000000000     13.425940000000001
H       3.247500000000000     -2.247380000000000     13.563400000000000
H       1.996310000000000     -4.459250000000000     11.171960000000000
H       2.650880000000000     -4.278920000000000     12.812519999999999
H      -0.233750000000000     -3.607070000000000     11.864960000000000
H       0.265460000000000     -5.056180000000000     12.817130000000001
H       0.356230000000000     -3.422630000000000     13.564570000000000
H       2.526690000000000      0.108900000000000     11.726419999999999
H       3.427640000000000      0.200380000000000     13.290080000000000
H       4.147100000000000     -0.674130000000000     11.884700000000000
C       6.712990000000000     -2.774260000000000     10.940899999999999
C       6.690100000000000     -0.924630000000000      9.548810000000000
O       5.904370000000000     -1.894110000000000     10.198420000000000
C       5.809830000000000     -3.813060000000000     11.592190000000000
C       5.757410000000000      0.009760000000000      8.789930000000000
H       7.431870000000000     -3.308890000000000     10.279719999999999
H       7.249570000000000     -2.228160000000000     11.748889999999999
H       7.260600000000000     -0.317010000000000     10.286910000000001
H       7.377190000000000     -1.400520000000000      8.813310000000000
H       5.057270000000000      0.501370000000000      9.498849999999999
H       6.343630000000000      0.790820000000000      8.262820000000000
H       5.167020000000000     -0.564540000000000      8.043340000000001
H       5.255210000000000     -4.379300000000000     10.813000000000001
H       6.413550000000000     -4.523080000000000     12.194380000000001
H       5.077230000000000     -3.311300000000000     12.257759999999999
Mg     -0.269630000000000     -1.295870000000000     19.660760000000000
C      -1.598100000000000     -3.351720000000000     17.560520000000000
C      -1.749960000000000     -1.102930000000000     16.788250000000001
O      -1.850120000000000     -1.995360000000000     17.880070000000000
C      -0.195940000000000     -3.616010000000000     17.010120000000001
C      -2.908300000000000     -1.256150000000000     15.811900000000000
H      -1.670540000000000     -3.909480000000000     18.514749999999999
H      -2.389110000000000     -3.777180000000000     16.911269999999998
H      -1.802960000000000     -0.076730000000000     17.212250000000001
H      -0.766030000000000     -1.152560000000000     16.279560000000000
H      -3.870750000000000     -1.173940000000000     16.359610000000000
H      -2.853560000000000     -0.453130000000000     15.048019999999999
H      -2.854800000000000     -2.234820000000000     15.294300000000000
H       0.568100000000000     -3.138950000000000     17.654100000000000
H      -0.013050000000000     -4.710490000000000     16.983120000000000
H      -0.096800000000000     -3.230220000000000     15.977570000000000
H       2.267280000000000     -0.920480000000000     19.047950000000000
C       1.375360000000000      1.062600000000000     19.145470000000000
C       1.357090000000000     -0.387740000000000     18.704200000000000
C       1.357600000000000      1.154420000000000     20.674949999999999
H       2.288700000000000      1.536010000000000     18.730630000000001
H       0.476520000000000      1.581250000000000     18.743950000000002
H       0.395010000000000      0.754330000000000     21.060089999999999
H       2.184800000000000      0.551960000000000     21.107089999999999
C       1.522550000000000      2.597500000000000     21.133759999999999
H       1.265440000000000     -0.468940000000000     17.601859999999999
H       2.506200000000000      2.984780000000000     20.791910000000001
H       0.712900000000000      3.235720000000000     20.721029999999999
H       1.488930000000000      2.643190000000000     22.242500000000000
C      -2.018640000000000      0.616300000000000     22.588950000000001
C      -2.475210000000000      0.643290000000000     21.290810000000000
C      -2.549260000000000     -0.666650000000000     20.851949999999999
C      -2.137040000000000     -1.463760000000000     21.842890000000001
N      -1.806430000000000     -0.712490000000000     22.988650000000000
C      -2.037000000000000     -2.965420000000000     21.789770000000001
N      -0.962700000000000     -3.405870000000000     20.881580000000000
C       0.320420000000000     -3.828280000000000     21.497470000000000
H      -2.717530000000000      1.533770000000000     20.724940000000000
H      -1.841090000000000      1.479890000000000     23.213660000000001
H      -2.877820000000000     -0.982730000000000     19.874240000000000
H      -3.005010000000000     -3.372130000000000     21.427330000000001
H      -1.888880000000000     -3.344930000000000     22.814190000000000
C       0.124400000000000     -5.090850000000000     22.362369999999999
C       1.295600000000000     -4.186720000000000     20.359490000000001
C       0.957880000000000     -2.695910000000000     22.330220000000001
H      -0.352680000000000     -5.894290000000000     21.761410000000001
H       1.103860000000000     -5.462130000000000     22.733419999999999
H      -0.500230000000000     -4.900020000000000     23.255469999999999
H       1.505900000000000     -3.299300000000000     19.729080000000000
H       2.267860000000000     -4.545270000000000     20.764830000000000
H       0.872220000000000     -4.986280000000000     19.713960000000000
H       1.164460000000000     -1.808670000000000     21.694659999999999
H       0.300660000000000     -2.387020000000000     23.165810000000000
H       1.922180000000000     -3.033310000000000     22.769279999999998

-C 0
6-31g(d,p)
****
-H 0
6-31g(d,p)
****
-Mg 0
6-31g(d,p)
****
-N 0
6-31+g(d,p)
****
-Na 0
6-31g(d,p)
****
-O 0
6-31+g(d,p)
****


