%chk=lowest10_c1_a2_speciation0_speciationDFT36_speciationDFT38_rank08_E180.80.chk
%nprocshared=20
%mem=40GB
#p opt=loose PM7/gen scf=xqc 

lowest10_c1_a2_speciation0_speciationDFT36_speciationDFT38_rank08_E180.80 DFT input

0 1
Mg      0.450040000000000      0.141300000000000     -0.896230000000000
C      -2.244320000000000     -1.129660000000000      0.501850000000000
C      -0.349060000000000     -2.521550000000000      0.949210000000000
O      -0.909910000000000     -1.480210000000000      0.179740000000000
C      -2.524130000000000     -0.903170000000000      1.989410000000000
C      -1.002930000000000     -3.865630000000000      0.669590000000000
H      -2.430700000000000     -0.158760000000000      0.002420000000000
H      -2.959680000000000     -1.851410000000000      0.058570000000000
H       0.713440000000000     -2.601210000000000      0.649670000000000
H      -0.317180000000000     -2.277780000000000      2.029340000000000
H      -0.441280000000000     -4.659520000000000      1.203910000000000
H      -0.985960000000000     -4.078120000000000     -0.419440000000000
H      -2.050910000000000     -3.862110000000000      1.027420000000000
H      -1.797350000000000     -0.195400000000000      2.420710000000000
H      -2.488930000000000     -1.860470000000000      2.547120000000000
H      -3.534480000000000     -0.464360000000000      2.111330000000000
H       0.464070000000000     -1.365550000000000     -3.094240000000000
C       2.595230000000000     -1.200520000000000     -2.601400000000000
C       1.185830000000000     -0.600780000000000     -2.743570000000000
C       2.733500000000000     -2.321440000000000     -1.551990000000000
H       2.909320000000000     -1.590600000000000     -3.591700000000000
H       3.292430000000000     -0.387500000000000     -2.305770000000000
H       3.791210000000000     -2.669590000000000     -1.550420000000000
H       2.517720000000000     -1.918470000000000     -0.542060000000000
C       1.843240000000000     -3.533740000000000     -1.824720000000000
H       1.201010000000000      0.245130000000000     -3.457070000000000
H       0.774820000000000     -3.246900000000000     -1.789030000000000
H       2.072400000000000     -3.971330000000000     -2.818270000000000
H       2.017690000000000     -4.308900000000000     -1.046350000000000
C       1.693610000000000     -0.376480000000000      2.802020000000000
C       2.540300000000000     -0.037070000000000      1.771830000000000
C       1.931600000000000      0.977050000000000      1.053250000000000
C       0.741990000000000      1.227600000000000      1.610650000000000
N       0.541580000000000      0.419290000000000      2.747260000000000
C      -0.286600000000000      2.198050000000000      1.093590000000000
N      -0.674540000000000      1.801630000000000     -0.265500000000000
C      -1.567200000000000      2.691340000000000     -1.046760000000000
H       3.493010000000000     -0.503690000000000      1.560810000000000
H       1.867700000000000     -1.148160000000000      3.538300000000000
H       2.325990000000000      1.445750000000000      0.159470000000000
H       0.141770000000000      3.217410000000000      1.112030000000000
H      -1.174300000000000      2.150890000000000      1.757600000000000
C      -0.853290000000000      4.013870000000000     -1.387940000000000
C      -1.946410000000000      1.982030000000000     -2.357070000000000
C      -2.866700000000000      2.997930000000000     -0.263250000000000
H       0.066680000000000      3.817450000000000     -1.976890000000000
H      -1.521470000000000      4.675940000000000     -1.981400000000000
H      -0.576560000000000      4.574500000000000     -0.472380000000000
H      -2.498290000000000      1.040590000000000     -2.151810000000000
H      -2.597060000000000      2.633930000000000     -2.982710000000000
H      -1.035520000000000      1.735550000000000     -2.941720000000000
H      -3.403650000000000      2.060050000000000     -0.006230000000000
H      -2.654970000000000      3.549260000000000      0.676610000000000
H      -3.552920000000000      3.630840000000000     -0.868090000000000
Na      7.968550000000000      1.574740000000000      8.806850000000001
C       5.313120000000000      2.694510000000000      7.235640000000000
C       4.711850000000000      1.680320000000000      9.214309999999999
O       5.460000000000000      1.534410000000000      8.026630000000001
C       6.111020000000000      2.524830000000000      5.950590000000000
C       4.881170000000000      0.433210000000000     10.069710000000001
H       4.246290000000000      2.851880000000000      6.955320000000000
H       5.712070000000000      3.587940000000000      7.767870000000000
H       5.074240000000000      2.551260000000000      9.806990000000001
H       3.628830000000000      1.784600000000000      8.984340000000000
H       5.951280000000000      0.289980000000000     10.330280000000000
H       4.294280000000000      0.539240000000000     11.006850000000000
H       4.518090000000000     -0.460090000000000      9.518409999999999
H       5.737230000000000      1.647240000000000      5.381400000000000
H       6.005560000000000      3.433100000000000      5.320160000000000
H       7.186220000000000      2.373930000000000      6.185530000000000
Na      4.131360000000000     -0.306920000000000      6.688160000000000
Mg     -0.648070000000000      4.883800000000000      8.604649999999999
C      -2.181620000000000      2.852930000000000      5.689350000000000
C      -2.731810000000000      1.782700000000000      7.656590000000000
O      -1.704140000000000      2.456310000000000      6.959610000000000
C      -1.003170000000000      3.178830000000000      4.785620000000000
C      -2.260370000000000      1.457690000000000      9.067000000000000
H      -2.755340000000000      2.041630000000000      5.186430000000000
H      -2.819540000000000      3.757060000000000      5.785620000000000
H      -3.645790000000000      2.411750000000000      7.732640000000000
H      -2.978730000000000      0.823390000000000      7.151930000000000
H      -2.012100000000000      2.388230000000000      9.616470000000000
H      -3.063580000000000      0.923210000000000      9.617200000000000
H      -1.359740000000000      0.810010000000000      9.026410000000000
H      -0.354080000000000      2.287490000000000      4.668310000000000
H      -1.370500000000000      3.505810000000000      3.791400000000000
H      -0.399270000000000      3.993840000000000      5.213750000000000
H       0.644560000000000      2.166460000000000      9.983240000000000
C       0.811030000000000      4.042210000000000     11.103590000000001
C       0.885990000000000      3.235220000000000      9.814270000000000
C      -0.595610000000000      3.991930000000000     11.712090000000000
H       1.550370000000000      3.622090000000000     11.816640000000000
H       1.077400000000000      5.100410000000000     10.886270000000000
H      -1.327990000000000      4.463300000000000     11.020580000000001
H      -0.895110000000000      2.935370000000000     11.880319999999999
C      -0.635480000000000      4.724170000000000     13.050230000000001
H       1.884930000000000      3.339030000000000      9.346370000000000
H       0.073910000000000      4.250200000000000     13.761990000000001
H      -0.362010000000000      5.792770000000000     12.919499999999999
H      -1.657960000000000      4.666170000000000     13.479500000000000
C      -3.785640000000000      4.727180000000000      9.006440000000000
C      -4.827400000000000      5.328660000000000      8.321270000000000
C      -4.254360000000000      6.103680000000000      7.323520000000000
C      -2.892400000000000      5.925890000000000      7.427700000000000
N      -2.626370000000000      5.098010000000000      8.449669999999999
C      -1.793120000000000      6.543460000000000      6.581610000000000
N      -0.499320000000000      5.859870000000000      6.824000000000000
C       0.758210000000000      6.533970000000000      6.448280000000000
H      -5.882070000000000      5.216650000000000      8.528050000000000
H      -3.877770000000000      4.055390000000000      9.852410000000001
H      -4.774180000000000      6.715550000000000      6.597920000000000
H      -2.050130000000000      6.420170000000000      5.509270000000000
H      -1.747610000000000      7.622420000000000      6.831380000000000
C       1.067000000000000      7.688610000000000      7.416230000000000
C       1.905680000000000      5.506250000000000      6.534150000000000
C       0.677040000000000      7.052010000000000      4.997570000000000
H       1.160220000000000      7.305940000000000      8.455579999999999
H       2.025370000000000      8.178319999999999      7.136330000000000
H       0.273370000000000      8.461010000000000      7.393830000000000
H       1.733640000000000      4.651050000000000      5.847400000000000
H       2.875850000000000      5.973140000000000      6.254580000000000
H       2.000220000000000      5.105750000000000      7.565360000000000
H       0.447640000000000      6.214640000000000      4.302760000000000
H      -0.115580000000000      7.821450000000000      4.891880000000000
H       1.640050000000000      7.510450000000000      4.687520000000000

-C 0
6-31g(d,p)
****
-H 0
6-31g(d,p)
****
-Mg 0
6-31g(d,p)
****
-N 0
6-31+g(d,p)
****
-Na 0
6-31g(d,p)
****
-O 0
6-31+g(d,p)
****


