%chk=lowest10_c1_a2_speciation7_speciationDFT0_speciationDFT38_rank08_E220.34.chk
%nprocshared=20
%mem=40GB
#p opt=loose PM7/gen scf=xqc 

lowest10_c1_a2_speciation7_speciationDFT0_speciationDFT38_rank08_E220.34 DFT input

0 1
Mg     -0.388160000000000      0.322840000000000      0.784720000000000
C      -0.745900000000000      0.244910000000000     -2.501330000000000
C       1.074990000000000      1.679270000000000     -1.908510000000000
O      -0.076110000000000      0.977250000000000     -1.489830000000000
C       0.145530000000000     -0.663700000000000     -3.351190000000000
C       0.745230000000000      2.836740000000000     -2.838940000000000
H      -1.453490000000000     -0.424650000000000     -1.973780000000000
H      -1.363280000000000      0.915950000000000     -3.132300000000000
H       1.535560000000000      2.107670000000000     -0.997730000000000
H       1.851170000000000      1.006760000000000     -2.323830000000000
H       1.669460000000000      3.419710000000000     -3.032430000000000
H      -0.010600000000000      3.499630000000000     -2.369270000000000
H       0.353120000000000      2.455150000000000     -3.801930000000000
H       0.761060000000000     -1.317130000000000     -2.708390000000000
H       0.802280000000000     -0.064090000000000     -4.013040000000000
H      -0.490090000000000     -1.310780000000000     -3.988460000000000
H      -1.711970000000000      2.597500000000000      1.245670000000000
C      -0.043860000000000      2.695300000000000      2.665170000000000
C      -1.164950000000000      1.930430000000000      1.941880000000000
C       1.071870000000000      3.245380000000000      1.754410000000000
H      -0.499710000000000      3.535580000000000      3.229060000000000
H       0.436710000000000      2.004460000000000      3.390670000000000
H       1.814530000000000      3.773340000000000      2.394220000000000
H       1.599990000000000      2.406080000000000      1.258420000000000
C       0.576720000000000      4.235900000000000      0.700730000000000
H      -1.875850000000000      1.510010000000000      2.679380000000000
H      -0.128170000000000      3.742810000000000      0.003990000000000
H       0.073670000000000      5.099860000000000      1.182150000000000
H       1.439420000000000      4.612740000000000      0.108310000000000
C       3.233990000000000     -0.602460000000000     -0.371330000000000
C       2.956340000000000     -0.248510000000000      0.936680000000000
C       1.819130000000000     -0.943820000000000      1.299310000000000
C       1.448130000000000     -1.644280000000000      0.233000000000000
N       2.364650000000000     -1.431980000000000     -0.812140000000000
C       0.211290000000000     -2.497610000000000      0.120050000000000
N      -0.968210000000000     -1.649010000000000      0.335640000000000
C      -2.305000000000000     -2.281840000000000      0.445690000000000
H       3.499960000000000      0.464550000000000      1.542700000000000
H       4.055590000000000     -0.232500000000000     -0.967920000000000
H       1.298220000000000     -0.889360000000000      2.246700000000000
H       0.270740000000000     -3.307710000000000      0.871060000000000
H       0.174170000000000     -2.935230000000000     -0.899670000000000
C      -2.401430000000000     -3.134800000000000      1.725510000000000
C      -3.370890000000000     -1.175310000000000      0.508760000000000
C      -2.597940000000000     -3.171900000000000     -0.785780000000000
H      -2.222090000000000     -2.509730000000000      2.624880000000000
H      -3.409370000000000     -3.597850000000000      1.810420000000000
H      -1.665450000000000     -3.963030000000000      1.715240000000000
H      -3.355850000000000     -0.558380000000000     -0.414320000000000
H      -4.388290000000000     -1.615700000000000      0.612170000000000
H      -3.189890000000000     -0.510650000000000      1.379300000000000
H      -2.539430000000000     -2.579620000000000     -1.723650000000000
H      -1.880110000000000     -4.015410000000000     -0.857740000000000
H      -3.617730000000000     -3.611600000000000     -0.721250000000000
Na      1.895240000000000     -7.980810000000000      3.653460000000000
C       1.112230000000000     -8.205430000000000      6.743990000000000
C       1.869150000000000    -10.345300000000000      6.150620000000000
O       1.191150000000000     -9.179770000000000      5.721310000000000
C       2.324350000000000     -7.280220000000000      6.706370000000000
C       0.897990000000000    -11.357870000000000      6.752100000000000
H       0.202160000000000     -7.595090000000000      6.562910000000000
H       0.987030000000000     -8.652260000000000      7.756040000000000
H       2.348660000000000    -10.805170000000000      5.260170000000000
H       2.692200000000000    -10.123710000000001      6.865930000000000
H       0.126030000000000    -11.645610000000000      6.008730000000000
H       1.455500000000000    -12.269370000000000      7.051580000000000
H       0.398550000000000    -10.936800000000000      7.648900000000000
H       2.397130000000000     -6.783990000000000      5.716110000000000
H       2.220690000000000     -6.501100000000000      7.489900000000000
H       3.256800000000000     -7.850310000000000      6.894590000000000
C       5.123070000000000     -8.789709999999999      4.222050000000000
C       4.827150000000000     -7.828410000000000      2.061310000000000
O       4.215090000000000     -8.370350000000000      3.218740000000000
C       5.962240000000000     -7.653590000000000      4.808680000000000
C       5.689550000000000     -8.834050000000000      1.298960000000000
H       4.507540000000000     -9.193780000000000      5.052870000000000
H       5.752160000000000     -9.637150000000000      3.880670000000000
H       4.001890000000000     -7.531490000000000      1.379040000000000
H       5.378220000000000     -6.891120000000000      2.282520000000000
H       5.097060000000000     -9.744910000000001      1.073480000000000
H       6.028080000000000     -8.378060000000000      0.345200000000000
H       6.592850000000000     -9.107419999999999      1.880780000000000
H       5.301940000000000     -6.836510000000000      5.168260000000000
H       6.553670000000000     -8.041620000000000      5.664360000000000
H       6.676890000000000     -7.256150000000000      4.060040000000000
Na     -0.861750000000000     -9.939500000000001      4.736880000000000
C      -0.658260000000000     -7.982840000000000      2.042690000000000
C       0.268970000000000    -10.101120000000000      1.677730000000000
O      -0.009600000000000     -9.092969999999999      2.628260000000000
C      -1.250000000000000     -7.122980000000000      3.152390000000000
C       1.511920000000000     -9.776999999999999      0.851730000000000
H       0.074330000000000     -7.363290000000000      1.482250000000000
H      -1.497270000000000     -8.288449999999999      1.377970000000000
H       0.472360000000000    -11.036700000000000      2.241830000000000
H      -0.605650000000000    -10.320639999999999      1.026130000000000
H       2.383060000000000     -9.618930000000001      1.520340000000000
H       1.734140000000000    -10.625270000000000      0.170850000000000
H       1.351040000000000     -8.868190000000000      0.236620000000000
H      -0.450750000000000     -6.788450000000000      3.847950000000000
H      -1.743460000000000     -6.230070000000000      2.716310000000000
H      -2.004690000000000     -7.702140000000000      3.724070000000000
C      -4.101420000000000    -10.395270000000000      4.193520000000000
C      -3.815660000000000     -9.289849999999999      6.207190000000000
O      -3.176510000000000     -9.768630000000000      5.048920000000000
C      -3.346300000000000    -10.916919999999999      2.978370000000000
C      -2.770650000000000     -8.600720000000001      7.074190000000000
H      -4.585510000000000    -11.262639999999999      4.696610000000000
H      -4.864960000000000     -9.666990000000000      3.839050000000000
H      -4.596760000000000     -8.540089999999999      5.947910000000000
H      -4.252770000000000    -10.129440000000001      6.793340000000000
H      -2.314780000000000     -7.755490000000000      6.515430000000000
H      -3.239780000000000     -8.208860000000000      8.000439999999999
H      -1.970200000000000     -9.320700000000000      7.351080000000000
H      -2.571860000000000    -11.648630000000001      3.294950000000000
H      -4.046840000000000    -11.413040000000001      2.275270000000000
H      -2.848570000000000    -10.075020000000000      2.454070000000000
Mg      2.798090000000000    -14.173170000000001      1.631500000000000
H       0.063840000000000    -14.899789999999999      0.193490000000000
C       1.388030000000000    -16.334289999999999     -0.799410000000000
C       1.114320000000000    -14.986660000000001     -0.151190000000000
C       1.124080000000000    -17.514030000000002      0.146330000000000
H       0.726510000000000    -16.427569999999999     -1.685900000000000
H       2.443070000000000    -16.367960000000000     -1.145250000000000
H       0.067650000000000    -17.496060000000000      0.492240000000000
H       1.287370000000000    -18.449900000000000     -0.428820000000000
C       2.056070000000000    -17.537730000000000      1.359570000000000
H       1.352480000000000    -14.161740000000000     -0.856640000000000
H       1.877060000000000    -16.661159999999999      2.014360000000000
H       1.862960000000000    -18.459029999999998      1.950380000000000
H       3.118890000000000    -17.545520000000000      1.035890000000000
C       1.797450000000000    -14.730860000000000      4.595400000000000
C       2.484170000000000    -14.851680000000000      5.792310000000000
C       3.831450000000000    -14.695800000000000      5.503590000000000
C       3.910320000000000    -14.508150000000001      4.141130000000000
N       2.681440000000000    -14.515269999999999      3.607750000000000
C       5.157420000000000    -14.304860000000000      3.301130000000000
N       4.809200000000000    -14.398600000000000      1.867350000000000
C       5.843950000000000    -14.283989999999999      0.824600000000000
H       2.052910000000000    -15.029949999999999      6.768090000000000
H       0.725690000000000    -14.793910000000000      4.460020000000000
H       4.656150000000000    -14.730020000000000      6.202100000000000
H       5.578760000000000    -13.308420000000000      3.548170000000000
H       5.882180000000000    -15.101139999999999      3.555000000000000
C       6.827530000000000    -15.465740000000000      0.935380000000000
C       5.159100000000000    -14.349810000000000     -0.552120000000000
C       6.599760000000000    -12.949210000000001      0.943570000000000
H       6.280130000000000    -16.429910000000000      0.844830000000000
H       7.591940000000000    -15.419589999999999      0.130620000000000
H       7.362940000000000    -15.458000000000000      1.906220000000000
H       4.441940000000000    -13.510439999999999     -0.676730000000000
H       5.912920000000000    -14.288380000000000     -1.368450000000000
H       4.603310000000000    -15.304390000000000     -0.667500000000000
H       5.891940000000000    -12.097930000000000      0.862010000000000
H       7.134100000000000    -12.878130000000001      1.913170000000000
H       7.357620000000000    -12.858990000000000      0.135500000000000

-C 0
6-31g(d,p)
****
-H 0
6-31g(d,p)
****
-Mg 0
6-31g(d,p)
****
-N 0
6-31+g(d,p)
****
-Na 0
6-31g(d,p)
****
-O 0
6-31+g(d,p)
****


