%chk=lowest10_c1_a2_speciation0_speciationDFT38_speciationDFT96_rank01_E186.27.chk
%nprocshared=20
%mem=40GB
#p opt=loose PM7/gen scf=xqc 

lowest10_c1_a2_speciation0_speciationDFT38_speciationDFT96_rank01_E186.27 DFT input

0 1
Mg     -0.001720000000000      0.314200000000000     -0.381210000000000
C      -1.663600000000000     -2.694720000000000     -1.011290000000000
C       0.686030000000000     -2.941140000000000     -0.670580000000000
O      -0.461320000000000     -2.125260000000000     -0.527340000000000
C      -2.118610000000000     -3.921210000000000     -0.227050000000000
C       1.052960000000000     -3.230800000000000     -2.123690000000000
H      -2.447620000000000     -1.916330000000000     -0.889070000000000
H      -1.620750000000000     -2.908510000000000     -2.096170000000000
H       1.533140000000000     -2.367410000000000     -0.244880000000000
H       0.621820000000000     -3.861940000000000     -0.056310000000000
H       1.109580000000000     -2.284590000000000     -2.700630000000000
H       2.044150000000000     -3.729210000000000     -2.155390000000000
H       0.312180000000000     -3.909980000000000     -2.589380000000000
H      -2.177610000000000     -3.692040000000000      0.855910000000000
H      -3.125620000000000     -4.223170000000000     -0.584080000000000
H      -1.425070000000000     -4.769040000000000     -0.392000000000000
H      -2.351620000000000      0.649300000000000     -2.151900000000000
C      -0.910620000000000     -0.082490000000000     -3.638550000000000
C      -1.285380000000000      0.759210000000000     -2.438430000000000
C      -1.700370000000000      0.385860000000000     -4.848210000000000
H       0.177250000000000      0.013540000000000     -3.834190000000000
H      -1.134650000000000     -1.145510000000000     -3.424380000000000
H      -2.787000000000000      0.287630000000000     -4.634120000000000
H      -1.463250000000000      1.454050000000000     -5.045320000000000
C      -1.351380000000000     -0.443150000000000     -6.073600000000000
H      -0.992340000000000      1.822100000000000     -2.563780000000000
H      -0.269080000000000     -0.346850000000000     -6.305280000000000
H      -1.594580000000000     -1.512310000000000     -5.894130000000000
H      -1.941670000000000     -0.076480000000000     -6.937420000000000
C       0.266970000000000      2.144470000000000      4.115030000000000
C       1.249880000000000      3.011020000000000      3.688520000000000
C       2.020530000000000      2.320140000000000      2.766140000000000
C       1.483250000000000      1.108360000000000      2.652720000000000
N       0.386760000000000      1.014310000000000      3.524630000000000
C       1.950140000000000     -0.064750000000000      1.813350000000000
N       1.849230000000000      0.088230000000000      0.350150000000000
C       2.808180000000000      0.824990000000000     -0.485160000000000
H       1.393430000000000      4.028580000000000      4.029310000000000
H      -0.506800000000000      2.351920000000000      4.840380000000000
H       2.890960000000000      2.706760000000000      2.266300000000000
H       1.280830000000000     -0.914150000000000      2.070320000000000
H       2.965620000000000     -0.373320000000000      2.110830000000000
C       4.211590000000000      0.795860000000000      0.125370000000000
C       2.856930000000000      0.120080000000000     -1.855460000000000
C       2.315050000000000      2.266600000000000     -0.727980000000000
H       4.524690000000000     -0.260670000000000      0.276450000000000
H       4.938000000000000      1.294730000000000     -0.546470000000000
H       4.226040000000000      1.313640000000000      1.101650000000000
H       1.850950000000000      0.106680000000000     -2.320950000000000
H       3.547270000000000      0.642950000000000     -2.552140000000000
H       3.191330000000000     -0.933750000000000     -1.749590000000000
H       1.341290000000000      2.269940000000000     -1.266780000000000
H       2.165420000000000      2.823880000000000      0.206850000000000
H       3.047180000000000      2.826040000000000     -1.348500000000000
C      -2.205010000000000      1.439390000000000      1.581210000000000
C      -1.845150000000000     -0.830630000000000      2.113710000000000
O      -1.791490000000000      0.169580000000000      1.116350000000000
C      -1.359200000000000      2.535350000000000      0.928860000000000
C      -3.268380000000000     -1.298090000000000      2.342030000000000
H      -3.262950000000000      1.592200000000000      1.287990000000000
H      -2.114360000000000      1.555740000000000      2.682610000000000
H      -1.236970000000000     -1.690750000000000      1.769960000000000
H      -1.382450000000000     -0.523430000000000      3.067370000000000
H      -3.707340000000000     -1.647060000000000      1.384790000000000
H      -3.264230000000000     -2.130930000000000      3.074870000000000
H      -3.871590000000000     -0.460270000000000      2.746180000000000
H      -0.292340000000000      2.431080000000000      1.196480000000000
H      -1.436150000000000      2.494760000000000     -0.176050000000000
H      -1.704800000000000      3.531900000000000      1.272420000000000
Na      3.782990000000000     -4.576570000000000     12.922620000000000
C       3.531390000000000     -7.621740000000000     11.725239999999999
C       1.640590000000000     -6.402650000000000     11.231970000000000
O       2.524170000000000     -6.791060000000000     12.261780000000000
C       4.475220000000000     -8.045730000000001     12.841490000000000
C       0.565890000000000     -5.494640000000000     11.812180000000000
H       3.090140000000000     -8.545100000000000     11.285190000000000
H       4.130830000000000     -7.073680000000000     10.962870000000001
H       2.179260000000000     -5.829630000000000     10.444220000000000
H       1.133760000000000     -7.291000000000000     10.790850000000001
H       1.029680000000000     -4.587440000000000     12.254460000000000
H      -0.136030000000000     -5.183730000000000     11.009539999999999
H      -0.004240000000000     -6.032510000000000     12.599399999999999
H       3.917460000000000     -8.606479999999999     13.621440000000000
H       5.272730000000000     -8.700340000000001     12.430280000000000
H       4.946700000000000     -7.152370000000000     13.303380000000001
Na      1.076430000000000     -8.429240000000000     13.739380000000001
Mg      4.658950000000000     -2.860710000000000      6.535560000000000
C       6.275560000000000     -0.163610000000000      5.373500000000000
C       6.125710000000000     -0.060010000000000      7.756460000000000
O       5.684220000000000     -0.667700000000000      6.559170000000000
C       7.805980000000000     -0.123390000000000      5.378560000000000
C       5.700350000000000      1.398480000000000      7.871960000000000
H       5.988070000000000     -0.864720000000000      4.564660000000000
H       5.841560000000000      0.819790000000000      5.099880000000000
H       5.645750000000000     -0.609550000000000      8.589589999999999
H       7.213080000000000     -0.197820000000000      7.919340000000000
H       5.979970000000000      1.778090000000000      8.876830000000000
H       4.601600000000000      1.487600000000000      7.744860000000000
H       6.211810000000000      2.014540000000000      7.106200000000000
H       8.218840000000000     -1.112970000000000      5.649480000000000
H       8.179869999999999      0.645200000000000      6.084720000000000
H       8.170299999999999      0.139760000000000      4.364890000000000
H       2.216240000000000     -1.755040000000000      6.773910000000000
C       2.370170000000000     -3.065280000000000      8.522160000000000
C       2.577590000000000     -2.772170000000000      7.027910000000000
C       3.170320000000000     -2.160390000000000      9.479310000000000
H       1.288250000000000     -2.981640000000000      8.757680000000001
H       2.691490000000000     -4.110630000000000      8.714900000000000
H       2.947740000000000     -2.477740000000000     10.522910000000000
H       4.257340000000000     -2.304100000000000      9.311410000000000
C       2.826570000000000     -0.675590000000000      9.359190000000000
H       2.025140000000000     -3.513860000000000      6.417550000000000
H       3.087040000000000     -0.294050000000000      8.352610000000000
H       1.746060000000000     -0.507840000000000      9.548980000000000
H       3.411260000000000     -0.097150000000000     10.107870000000000
C       7.958410000000000     -2.938820000000000      8.683719999999999
C       6.886330000000000     -3.762950000000000      8.971310000000001
C       6.466190000000000     -4.299180000000000      7.770330000000000
C       7.252100000000000     -3.784520000000000      6.832200000000000
N       8.204350000000000     -2.936300000000000      7.423000000000000
C       7.122120000000000     -4.029130000000000      5.350220000000000
N       5.805300000000000     -3.549940000000000      4.906800000000000
C       5.362670000000000     -3.829600000000000      3.518890000000000
H       6.439640000000000     -3.930220000000000      9.943640000000000
H       8.520300000000001     -2.356840000000000      9.399210000000000
H       5.633670000000000     -4.970720000000000      7.611740000000000
H       7.242640000000000     -5.113610000000000      5.163630000000000
H       7.922780000000000     -3.469320000000000      4.822820000000000
C       5.145900000000000     -5.340540000000000      3.303620000000000
C       4.031930000000000     -3.100820000000000      3.271840000000000
C       6.399250000000000     -3.310190000000000      2.494920000000000
H       4.391130000000000     -5.732050000000000      4.017070000000000
H       4.788970000000000     -5.537620000000000      2.268400000000000
H       6.088900000000000     -5.909410000000000      3.433830000000000
H       4.157820000000000     -2.006080000000000      3.398810000000000
H       3.665030000000000     -3.290250000000000      2.237590000000000
H       3.256610000000000     -3.450570000000000      3.985020000000000
H       6.569160000000000     -2.220250000000000      2.624660000000000
H       7.372560000000000     -3.833090000000000      2.601170000000000
H       6.045090000000000     -3.481270000000000      1.454370000000000

-C 0
6-31g(d,p)
****
-H 0
6-31g(d,p)
****
-Mg 0
6-31g(d,p)
****
-N 0
6-31+g(d,p)
****
-Na 0
6-31g(d,p)
****
-O 0
6-31+g(d,p)
****


