%chk=lowest10_c1_a2_speciation7_speciationDFT2_speciationDFT36_rank04_E223.71.chk
%nprocshared=20
%mem=40GB
#p opt=loose PM7/gen scf=xqc 

lowest10_c1_a2_speciation7_speciationDFT2_speciationDFT36_rank04_E223.71 DFT input

0 1
Mg     -0.293080000000000      0.401620000000000      0.666470000000000
C       0.967580000000000     -2.471560000000000     -1.401940000000000
C      -1.337350000000000     -2.549450000000000     -1.388450000000000
O      -0.187780000000000     -2.305750000000000     -0.602900000000000
C       2.187110000000000     -2.641440000000000     -0.508740000000000
C      -2.589120000000000     -2.284530000000000     -0.562470000000000
H       0.907960000000000     -3.383600000000000     -2.036730000000000
H       1.118790000000000     -1.582210000000000     -2.048030000000000
H      -1.361190000000000     -1.890570000000000     -2.281680000000000
H      -1.366680000000000     -3.609540000000000     -1.717910000000000
H      -2.624370000000000     -1.226420000000000     -0.233250000000000
H      -3.492210000000000     -2.494670000000000     -1.173760000000000
H      -2.599270000000000     -2.942160000000000      0.331470000000000
H       2.061100000000000     -3.524140000000000      0.150210000000000
H       3.096560000000000     -2.767680000000000     -1.132050000000000
H       2.331690000000000     -1.757430000000000      0.128060000000000
H      -2.280570000000000     -1.425420000000000      2.359460000000000
C      -2.432820000000000      0.742130000000000      2.733640000000000
C      -1.636330000000000     -0.540820000000000      2.528110000000000
C      -3.343110000000000      1.045870000000000      1.535420000000000
H      -3.042330000000000      0.617420000000000      3.651170000000000
H      -1.726930000000000      1.590790000000000      2.876480000000000
H      -2.732400000000000      1.233610000000000      0.624490000000000
H      -4.011450000000000      0.179940000000000      1.342280000000000
C      -4.210820000000000      2.271310000000000      1.812820000000000
H      -0.920990000000000     -0.713080000000000      3.357960000000000
H      -4.842980000000000      2.091610000000000      2.708750000000000
H      -3.577080000000000      3.165440000000000      1.989320000000000
H      -4.876740000000000      2.469460000000000      0.946300000000000
C      -1.506420000000000      0.664650000000000     -2.242910000000000
C      -0.906820000000000      0.973640000000000     -3.451060000000000
C       0.434550000000000      1.205580000000000     -3.183790000000000
C       0.599680000000000      1.013870000000000     -1.831730000000000
N      -0.575020000000000      0.678600000000000     -1.281080000000000
C       1.866440000000000      1.168170000000000     -1.009100000000000
N       1.700440000000000      0.570280000000000      0.336110000000000
C       2.637310000000000      0.944890000000000      1.414320000000000
H      -1.392680000000000      1.024990000000000     -4.414360000000000
H      -2.553460000000000      0.428650000000000     -2.086940000000000
H       1.204920000000000      1.472490000000000     -3.893760000000000
H       2.702780000000000      0.650090000000000     -1.520070000000000
H       2.075070000000000      2.254060000000000     -0.948440000000000
C       2.384750000000000      2.386660000000000      1.890020000000000
C       2.416870000000000     -0.005590000000000      2.609250000000000
C       4.091880000000000      0.786900000000000      0.928450000000000
H       1.352850000000000      2.489660000000000      2.289670000000000
H       3.100670000000000      2.652810000000000      2.698490000000000
H       2.521410000000000      3.117630000000000      1.069490000000000
H       2.598250000000000     -1.063160000000000      2.324610000000000
H       3.108970000000000      0.243120000000000      3.444190000000000
H       1.377310000000000      0.075780000000000      2.989550000000000
H       4.266340000000000     -0.252130000000000      0.572840000000000
H       4.308400000000000      1.483640000000000      0.092480000000000
H       4.809660000000000      1.002650000000000      1.747640000000000
Na     -3.325310000000000     11.332330000000001     -2.452150000000000
C      -4.268770000000000      8.519590000000001     -3.630180000000000
C      -6.230800000000000      9.770750000000000     -3.332520000000000
O      -4.933380000000000      9.489070000000000     -2.843260000000000
C      -3.492030000000000      9.180339999999999     -4.764740000000000
C      -7.271080000000000      8.849150000000000     -2.700650000000000
H      -3.545280000000000      7.988550000000000     -2.975970000000000
H      -4.958430000000000      7.739500000000000     -4.024110000000000
H      -6.475970000000000     10.818450000000000     -3.056020000000000
H      -6.290740000000000      9.721450000000001     -4.442430000000000
H      -7.272780000000000      8.963300000000000     -1.596770000000000
H      -8.278620000000000      9.114350000000000     -3.083780000000000
H      -7.062420000000000      7.789590000000000     -2.954850000000000
H      -2.754460000000000      9.902040000000000     -4.355380000000000
H      -2.949790000000000      8.404090000000000     -5.343650000000000
H      -4.180640000000000      9.716279999999999     -5.449240000000000
C      -4.535500000000000     13.064450000000001     -5.065230000000000
C      -3.001950000000000     14.370530000000000     -3.790170000000000
O      -3.773980000000000     13.185689999999999     -3.877090000000000
C      -3.688170000000000     12.985200000000001     -6.335590000000000
C      -3.842720000000000     15.646810000000000     -3.757270000000000
H      -5.085850000000000     12.103400000000001     -4.987850000000000
H      -5.317160000000000     13.848300000000000     -5.135610000000000
H      -2.457660000000000     14.320040000000001     -2.822750000000000
H      -2.214050000000000     14.410990000000000     -4.570510000000000
H      -4.604680000000000     15.579739999999999     -2.952410000000000
H      -3.181660000000000     16.515860000000000     -3.557210000000000
H      -4.341360000000000     15.820080000000001     -4.732170000000000
H      -2.936500000000000     12.173069999999999     -6.244120000000000
H      -4.349230000000000     12.768780000000000     -7.200970000000000
H      -3.177390000000000     13.948610000000000     -6.535600000000000
Na     -5.185460000000000      9.043780000000000     -0.506140000000000
C      -2.616990000000000     10.923579999999999      0.458270000000000
C      -4.636480000000000     12.107320000000000      0.481670000000000
O      -3.900820000000000     11.058680000000001     -0.115430000000000
C      -2.034920000000000      9.578180000000000      0.042110000000000
C      -4.220240000000000     13.475009999999999     -0.056050000000000
H      -1.943010000000000     11.720969999999999      0.078440000000000
H      -2.650060000000000     10.940230000000000      1.570870000000000
H      -5.704140000000000     11.950810000000001      0.216490000000000
H      -4.589390000000000     12.076470000000000      1.592670000000000
H      -4.332840000000000     13.501630000000000     -1.159450000000000
H      -4.869820000000000     14.258660000000001      0.387200000000000
H      -3.168220000000000     13.701720000000000      0.211820000000000
H      -1.981540000000000      9.507120000000000     -1.065480000000000
H      -1.012420000000000      9.464200000000000      0.458590000000000
H      -2.669500000000000      8.751830000000000      0.425010000000000
C      -5.180580000000000      7.474130000000000      2.412580000000000
C      -4.692990000000000      5.963350000000000      0.727230000000000
O      -4.903670000000000      7.318110000000000      1.041930000000000
C      -5.423070000000000      8.953360000000000      2.681730000000000
C      -4.368280000000000      5.866780000000000     -0.757300000000000
H      -6.100540000000000      6.916250000000000      2.699110000000000
H      -4.312610000000000      7.148900000000000      3.028960000000000
H      -3.827280000000000      5.555750000000000      1.295180000000000
H      -5.611650000000000      5.364810000000000      0.920770000000000
H      -3.452390000000000      6.454360000000000     -0.981930000000000
H      -4.196740000000000      4.808370000000000     -1.043730000000000
H      -5.210520000000000      6.272580000000000     -1.358840000000000
H      -6.284950000000000      9.314859999999999      2.080170000000000
H      -5.638660000000000      9.117910000000000      3.757680000000000
H      -4.523060000000000      9.539580000000001      2.402950000000000
Mg      3.095300000000000      8.220580000000000     -4.953530000000000
H       2.404380000000000      7.447010000000000     -7.846080000000000
C       2.669550000000000      5.463310000000000     -6.943900000000000
C       3.089910000000000      6.911290000000000     -7.158530000000000
C       1.311840000000000      5.317530000000000     -6.236890000000000
H       2.648010000000000      4.949490000000000     -7.927460000000000
H       3.436310000000000      4.972110000000000     -6.306320000000000
H       1.099500000000000      4.230890000000000     -6.134320000000000
H       1.362600000000000      5.755890000000000     -5.217690000000000
C       0.154040000000000      5.966680000000000     -6.993900000000000
H       4.125860000000000      6.970290000000000     -7.550340000000000
H       0.278700000000000      7.068840000000000     -7.032110000000000
H       0.089660000000000      5.562810000000000     -8.025820000000000
H      -0.798320000000000      5.752040000000000     -6.464240000000000
C       2.159150000000000      6.506120000000000     -2.448610000000000
C       1.703400000000000      6.881220000000000     -1.195450000000000
C       1.687660000000000      8.267730000000000     -1.169800000000000
C       2.114230000000000      8.678550000000000     -2.413220000000000
N       2.408450000000000      7.611320000000000     -3.168900000000000
C       2.271720000000000     10.100330000000000     -2.919960000000000
N       2.515770000000000     10.085800000000001     -4.378260000000000
C       2.694570000000000     11.340600000000000     -5.130540000000000
H       1.419470000000000      6.219940000000000     -0.388230000000000
H       2.302120000000000      5.493240000000000     -2.803290000000000
H       1.389690000000000      8.901450000000001     -0.346090000000000
H       3.120700000000000     10.562400000000000     -2.375070000000000
H       1.335820000000000     10.652210000000000     -2.711240000000000
C       3.856600000000000     12.170760000000000     -4.555740000000000
C       3.009710000000000     10.991860000000001     -6.596930000000000
C       1.387240000000000     12.156260000000000     -5.092450000000000
H       4.800750000000000     11.585730000000000     -4.581800000000000
H       3.999790000000000     13.099909999999999     -5.149000000000000
H       3.652140000000000     12.473020000000000     -3.508220000000000
H       2.192520000000000     10.384700000000000     -7.042850000000000
H       3.124270000000000     11.917880000000000     -7.203710000000000
H       3.954230000000000     10.411199999999999     -6.669820000000000
H       0.549650000000000     11.557589999999999     -5.513620000000000
H       1.121870000000000     12.445880000000001     -4.055520000000000
H       1.486060000000000     13.089190000000000     -5.687160000000000

-C 0
6-31g(d,p)
****
-H 0
6-31g(d,p)
****
-Mg 0
6-31g(d,p)
****
-N 0
6-31+g(d,p)
****
-Na 0
6-31g(d,p)
****
-O 0
6-31+g(d,p)
****


