%chk=lowest10_c1_a2_speciation7_speciationDFT37b_speciationDFT38_rank01_E202.86.chk
%nprocshared=20
%mem=40GB
#p opt=loose PM7/gen scf=xqc 

lowest10_c1_a2_speciation7_speciationDFT37b_speciationDFT38_rank01_E202.86 DFT input

0 1
Mg     -0.349560000000000      0.296220000000000     -0.897440000000000
C       2.103810000000000     -1.402970000000000      0.501180000000000
C       2.362000000000000      0.933280000000000      0.951950000000000
O       1.738590000000000     -0.071810000000000      0.181760000000000
C       2.047980000000000     -1.759750000000000      1.987500000000000
C       3.853070000000000      1.038960000000000      0.671220000000000
H       1.357670000000000     -2.050930000000000      0.000990000000000
H       3.087550000000000     -1.659680000000000      0.058850000000000
H       1.900280000000000      1.894010000000000      0.654050000000000
H       2.136130000000000      0.837980000000000      2.032440000000000
H       4.260470000000000      1.921400000000000      1.206580000000000
H       4.027740000000000      1.161950000000000     -0.417740000000000
H       4.374900000000000      0.129300000000000      1.027140000000000
H       1.070560000000000     -1.488930000000000      2.420140000000000
H       2.857370000000000     -1.246780000000000      2.543830000000000
H       2.179260000000000     -2.853490000000000      2.107610000000000
H       0.950570000000000      1.060160000000000     -3.099000000000000
C      -0.258190000000000      2.822190000000000     -2.604570000000000
C      -0.072890000000000      1.302000000000000     -2.748420000000000
C       0.643200000000000      3.500460000000000     -1.553680000000000
H      -0.077640000000000      3.291230000000000     -3.594040000000000
H      -1.310960000000000      3.018690000000000     -2.308650000000000
H       0.415070000000000      4.590330000000000     -1.549950000000000
H       0.402780000000000      3.109560000000000     -0.544510000000000
C       2.138370000000000      3.337620000000000     -1.826630000000000
H      -0.811870000000000      0.893980000000000     -3.464470000000000
H       2.425720000000000      2.269260000000000     -1.791650000000000
H       2.402280000000000      3.756300000000000     -2.819740000000000
H       2.721480000000000      3.876610000000000     -1.047750000000000
C      -0.520860000000000      1.631320000000000      2.808050000000000
C      -1.237430000000000      2.192030000000000      1.777590000000000
C      -1.812050000000000      1.159510000000000      1.056100000000000
C      -1.431920000000000      0.003870000000000      1.618370000000000
N      -0.635840000000000      0.231960000000000      2.752270000000000
C      -1.762460000000000     -1.371530000000000      1.094770000000000
N      -1.220930000000000     -1.509270000000000     -0.261430000000000
C      -1.546120000000000     -2.726070000000000     -1.046390000000000
H      -1.311190000000000      3.251550000000000      1.564780000000000
H       0.059310000000000      2.166920000000000      3.544050000000000
H      -2.413700000000000      1.265590000000000      0.164520000000000
H      -2.859920000000000     -1.504750000000000      1.109710000000000
H      -1.285000000000000     -2.119640000000000      1.763360000000000
C      -3.048310000000000     -2.768380000000000     -1.388480000000000
C      -0.741790000000000     -2.698650000000000     -2.356180000000000
C      -1.162320000000000     -4.005190000000000     -0.264150000000000
H      -3.338580000000000     -1.872620000000000     -1.975980000000000
H      -3.286550000000000     -3.676930000000000     -1.984560000000000
H      -3.673040000000000     -2.811890000000000     -0.473730000000000
H       0.349410000000000     -2.705000000000000     -2.150810000000000
H      -0.979880000000000     -3.588670000000000     -2.981660000000000
H      -0.984500000000000     -1.787300000000000     -2.941730000000000
H      -0.081710000000000     -4.001410000000000     -0.006930000000000
H      -1.745970000000000     -4.098390000000000      0.675200000000000
H      -1.367410000000000     -4.915330000000000     -0.870020000000000
Na      0.341770000000000     -1.093360000000000      9.185879999999999
C       1.800650000000000      0.099520000000000      6.601460000000000
C       1.301330000000000     -2.125920000000000      6.056680000000000
O       1.666130000000000     -1.223450000000000      7.083230000000000
C       0.471630000000000      0.843020000000000      6.683660000000000
C       2.535300000000000     -2.721490000000000      5.384940000000000
H       2.534500000000000      0.623810000000000      7.249710000000000
H       2.214810000000000      0.142250000000000      5.568720000000000
H       0.722740000000000     -2.951710000000000      6.522840000000000
H       0.629050000000000     -1.665500000000000      5.298500000000000
H       3.163760000000000     -3.256080000000000      6.126440000000000
H       2.216360000000000     -3.445990000000000      4.607230000000000
H       3.141870000000000     -1.925900000000000      4.906460000000000
H       0.104720000000000      0.855960000000000      7.731410000000000
H       0.610310000000000      1.888920000000000      6.339950000000000
H      -0.288840000000000      0.356050000000000      6.039880000000000
C      -2.506080000000000     -1.752640000000000      7.508390000000000
C      -2.848630000000000     -1.807000000000000      9.867599999999999
O      -1.919960000000000     -1.756440000000000      8.798280000000000
C      -3.375840000000000     -0.526350000000000      7.229000000000000
C      -3.678250000000000     -3.090530000000000      9.896830000000000
H      -1.666640000000000     -1.720350000000000      6.782440000000000
H      -3.043860000000000     -2.699420000000000      7.297070000000000
H      -2.251030000000000     -1.790140000000000     10.804440000000000
H      -3.485810000000000     -0.899520000000000      9.907520000000000
H      -3.009220000000000     -3.976450000000000      9.878810000000000
H      -4.283750000000000     -3.113920000000000     10.827000000000000
H      -4.378090000000000     -3.131770000000000      9.037910000000000
H      -2.799400000000000      0.403120000000000      7.420170000000000
H      -3.694160000000000     -0.540180000000000      6.165360000000000
H      -4.291610000000000     -0.535340000000000      7.853850000000000
Na      3.552360000000000     -2.213350000000000      8.189780000000001
C       2.448270000000000     -1.636210000000000     11.282360000000001
C       1.829130000000000     -3.752650000000000     10.498680000000000
O       2.136760000000000     -2.418720000000000     10.148210000000001
C       3.114330000000000     -0.347540000000000     10.816929999999999
C       0.400450000000000     -3.889100000000000     11.020540000000000
H       1.518620000000000     -1.364830000000000     11.827140000000000
H       3.162160000000000     -2.150180000000000     11.964610000000000
H       1.910960000000000     -4.362040000000000      9.573150000000000
H       2.565530000000000     -4.181720000000000     11.213710000000001
H      -0.319090000000000     -3.509860000000000     10.266159999999999
H       0.180120000000000     -4.958970000000000     11.218340000000000
H       0.270890000000000     -3.325430000000000     11.965769999999999
H       2.441350000000000      0.206100000000000     10.127630000000000
H       3.342290000000000      0.297580000000000     11.691290000000000
H       4.061760000000000     -0.576920000000000     10.285909999999999
C       6.627590000000000     -2.677050000000000      9.342050000000000
C       6.604670000000000     -0.827460000000000      7.949900000000000
O       5.818950000000000     -1.796950000000000      8.599530000000000
C       5.724470000000000     -3.715850000000000      9.993380000000000
C       5.671980000000000      0.106890000000000      7.190940000000000
H       7.346490000000000     -3.211680000000000      8.680899999999999
H       7.164170000000000     -2.130920000000000     10.150029999999999
H       7.175150000000000     -0.219810000000000      8.688000000000001
H       7.291800000000000     -1.303350000000000      7.214440000000000
H       4.971830000000000      0.598510000000000      7.899860000000000
H       6.258220000000000      0.887960000000000      6.663860000000000
H       5.081630000000000     -0.467410000000000      6.444320000000000
H       5.169840000000000     -4.282100000000000      9.214200000000000
H       6.328200000000000     -4.425850000000000     10.595570000000000
H       4.991870000000000     -3.214090000000000     10.658950000000001
Mg     -0.354970000000000     -1.198670000000000     18.061979999999998
C      -1.683440000000000     -3.254520000000000     15.961740000000001
C      -1.835310000000000     -1.005730000000000     15.189470000000000
O      -1.935460000000000     -1.898160000000000     16.281289999999998
C      -0.281280000000000     -3.518810000000000     15.411339999999999
C      -2.993640000000000     -1.158950000000000     14.213120000000000
H      -1.755880000000000     -3.812280000000000     16.915980000000001
H      -2.474450000000000     -3.679980000000000     15.312490000000000
H      -1.888300000000000      0.020470000000000     15.613470000000000
H      -0.851370000000000     -1.055350000000000     14.680780000000000
H      -3.956090000000000     -1.076730000000000     14.760830000000000
H      -2.938900000000000     -0.355930000000000     13.449240000000000
H      -2.940140000000000     -2.137610000000000     13.695520000000000
H       0.482760000000000     -3.041750000000000     16.055319999999998
H      -0.098390000000000     -4.613290000000000     15.384340000000000
H      -0.182140000000000     -3.133020000000000     14.378790000000000
H       2.181940000000000     -0.823280000000000     17.449179999999998
C       1.290020000000000      1.159800000000000     17.546690000000002
C       1.271750000000000     -0.290540000000000     17.105419999999999
C       1.272250000000000      1.251620000000000     19.076180000000001
H       2.203360000000000      1.633220000000000     17.131850000000000
H       0.391170000000000      1.678450000000000     17.145170000000000
H       0.309670000000000      0.851530000000000     19.461310000000001
H       2.099460000000000      0.649160000000000     19.508310000000002
C       1.437210000000000      2.694700000000000     19.534980000000001
H       1.180100000000000     -0.371740000000000     16.003090000000000
H       2.420860000000000      3.081980000000000     19.193130000000000
H       0.627560000000000      3.332930000000000     19.122260000000001
H       1.403590000000000      2.740390000000000     20.643719999999998
C      -2.103990000000000      0.713500000000000     20.990179999999999
C      -2.560550000000000      0.740490000000000     19.692029999999999
C      -2.634600000000000     -0.569450000000000     19.253180000000000
C      -2.222380000000000     -1.366550000000000     20.244109999999999
N      -1.891770000000000     -0.615290000000000     21.389869999999998
C      -2.122340000000000     -2.868220000000000     20.190989999999999
N      -1.048040000000000     -3.308670000000000     19.282800000000002
C       0.235080000000000     -3.731070000000000     19.898689999999998
H      -2.802870000000000      1.630970000000000     19.126159999999999
H      -1.926430000000000      1.577090000000000     21.614879999999999
H      -2.963160000000000     -0.885530000000000     18.275459999999999
H      -3.090350000000000     -3.274920000000000     19.828560000000000
H      -1.974220000000000     -3.247730000000000     21.215409999999999
C       0.039060000000000     -4.993650000000000     20.763590000000001
C       1.210250000000000     -4.089520000000000     18.760710000000000
C       0.872540000000000     -2.598710000000000     20.731439999999999
H      -0.438020000000000     -5.797080000000000     20.162630000000000
H       1.018520000000000     -5.364930000000000     21.134640000000001
H      -0.585570000000000     -4.802820000000000     21.656690000000001
H       1.420560000000000     -3.202100000000000     18.130299999999998
H       2.182520000000000     -4.448070000000000     19.166049999999998
H       0.786880000000000     -4.889070000000000     18.115179999999999
H       1.079120000000000     -1.711470000000000     20.095890000000001
H       0.215320000000000     -2.289820000000000     21.567039999999999
H       1.836830000000000     -2.936110000000000     21.170500000000001

-C 0
6-31g(d,p)
****
-H 0
6-31g(d,p)
****
-Mg 0
6-31g(d,p)
****
-N 0
6-31+g(d,p)
****
-Na 0
6-31g(d,p)
****
-O 0
6-31+g(d,p)
****


