%chk=lowest10_c1_a2_speciation0_speciationDFT2_speciationDFT38_rank07_E181.03.chk
%nprocshared=20
%mem=40GB
#p opt=loose PM7/gen scf=xqc 

lowest10_c1_a2_speciation0_speciationDFT2_speciationDFT38_rank07_E181.03 DFT input

0 1
Mg      0.449920000000000      0.142830000000000     -0.895810000000000
C      -2.244420000000000     -1.130130000000000      0.501230000000000
C      -0.349070000000000     -2.521700000000000      0.949010000000000
O      -0.909880000000000     -1.480440000000000      0.179320000000000
C      -2.524320000000000     -0.903810000000000      1.988690000000000
C      -1.002950000000000     -3.865810000000000      0.669530000000000
H      -2.430920000000000     -0.159160000000000      0.001980000000000
H      -2.959720000000000     -1.851900000000000      0.057940000000000
H       0.713440000000000     -2.601400000000000      0.649600000000000
H      -0.317230000000000     -2.277810000000000      2.029130000000000
H      -0.441340000000000     -4.659650000000000      1.203950000000000
H      -0.985950000000000     -4.078370000000000     -0.419480000000000
H      -2.050950000000000     -3.862280000000000      1.027320000000000
H      -1.797190000000000     -0.196160000000000      2.419620000000000
H      -2.489070000000000     -1.861050000000000      2.546510000000000
H      -3.534680000000000     -0.464980000000000      2.110660000000000
H       0.463940000000000     -1.365390000000000     -3.094110000000000
C       2.595080000000000     -1.200400000000000     -2.601400000000000
C       1.185650000000000     -0.600560000000000     -2.743420000000000
C       2.733410000000000     -2.321350000000000     -1.552030000000000
H       2.909160000000000     -1.590530000000000     -3.591710000000000
H       3.292360000000000     -0.387420000000000     -2.305850000000000
H       3.791140000000000     -2.669470000000000     -1.550460000000000
H       2.517600000000000     -1.918410000000000     -0.542110000000000
C       1.843220000000000     -3.533700000000000     -1.824800000000000
H       1.200950000000000      0.245100000000000     -3.457230000000000
H       0.774790000000000     -3.246920000000000     -1.789120000000000
H       2.072430000000000     -3.971290000000000     -2.818340000000000
H       2.017710000000000     -4.308850000000000     -1.046420000000000
C       1.692930000000000     -0.375110000000000      2.803060000000000
C       2.538990000000000     -0.037000000000000      1.771810000000000
C       1.930530000000000      0.977390000000000      1.053560000000000
C       0.741670000000000      1.229570000000000      1.612280000000000
N       0.541860000000000      0.422730000000000      2.750220000000000
C      -0.286690000000000      2.200650000000000      1.095280000000000
N      -0.676910000000000      1.801580000000000     -0.263030000000000
C      -1.567930000000000      2.691340000000000     -1.046240000000000
H       3.491040000000000     -0.504740000000000      1.559750000000000
H       1.867250000000000     -1.147100000000000      3.538990000000000
H       2.324600000000000      1.445050000000000      0.159040000000000
H       0.143650000000000      3.219050000000000      1.110600000000000
H      -1.173140000000000      2.158610000000000      1.762690000000000
C      -0.853660000000000      4.013820000000000     -1.387370000000000
C      -1.946240000000000      1.981820000000000     -2.356800000000000
C      -2.867860000000000      2.997860000000000     -0.264220000000000
H       0.066570000000000      3.817320000000000     -1.975980000000000
H      -1.521500000000000      4.675750000000000     -1.981380000000000
H      -0.577530000000000      4.574910000000000     -0.471950000000000
H      -2.498250000000000      1.040400000000000     -2.151870000000000
H      -2.596680000000000      2.633680000000000     -2.982790000000000
H      -1.035150000000000      1.735430000000000     -2.941180000000000
H      -3.404720000000000      2.060020000000000     -0.007030000000000
H      -2.655750000000000      3.548400000000000      0.675020000000000
H      -3.553640000000000      3.631210000000000     -0.868920000000000
Na     -1.340930000000000     12.890940000000001      5.524150000000000
C      -1.619440000000000     10.450910000000000      7.702850000000000
C      -3.049470000000000     12.176769999999999      8.235659999999999
O      -1.717150000000000     11.844090000000000      7.908930000000000
C      -0.179420000000000     10.097280000000000      7.360250000000000
C      -3.152760000000000     13.681699999999999      8.441839999999999
H      -1.895330000000000      9.893090000000001      8.626810000000001
H      -2.258750000000000     10.132980000000000      6.848360000000000
H      -3.741250000000000     11.899870000000000      7.407650000000000
H      -3.358100000000000     11.681559999999999      9.184369999999999
H      -2.863530000000000     14.216379999999999      7.512150000000000
H      -4.197820000000000     13.954170000000000      8.701440000000000
H      -2.483080000000000     14.001939999999999      9.268150000000000
H       0.495030000000000     10.391760000000000      8.192340000000000
H      -0.091120000000000      9.002280000000001      7.195970000000000
H       0.134180000000000     10.626220000000000      6.435060000000000
Na     -0.405770000000000     12.253019999999999     10.156499999999999
Mg     -1.184770000000000      5.449740000000000      6.719820000000000
H      -0.123430000000000      2.749810000000000      5.691320000000000
C       1.018350000000000      2.959400000000000      7.554880000000000
C       0.439540000000000      3.516800000000000      6.261020000000000
C      -0.053000000000000      2.518330000000000      8.565680000000000
H       1.687310000000000      2.108800000000000      7.308250000000000
H       1.625450000000000      3.757820000000000      8.034230000000001
H       0.471540000000000      2.126500000000000      9.464380000000000
H      -0.666090000000000      3.390270000000000      8.878080000000001
C      -0.982880000000000      1.427890000000000      8.035790000000000
H       1.238520000000000      3.940540000000000      5.619030000000000
H      -1.599430000000000      1.811610000000000      7.196580000000000
H      -0.396730000000000      0.548550000000000      7.696320000000000
H      -1.673430000000000      1.108360000000000      8.844900000000001
C      -1.597170000000000      6.068250000000000      9.806050000000001
C      -2.593070000000000      6.752680000000000     10.484890000000000
C      -3.510060000000000      7.172920000000000      9.533849999999999
C      -3.048550000000000      6.711940000000000      8.322190000000001
N      -1.886650000000000      6.059800000000000      8.498590000000000
C      -3.682050000000000      6.882710000000000      6.956320000000000
N      -2.989460000000000      6.024330000000000      5.971850000000000
C      -3.413430000000000      5.992500000000000      4.561030000000000
H      -2.643980000000000      6.929140000000000     11.549730000000000
H      -0.718450000000000      5.611920000000000     10.246840000000001
H      -4.416520000000000      7.738590000000000      9.707710000000001
H      -3.607290000000000      7.954450000000000      6.679470000000000
H      -4.744120000000000      6.578360000000000      7.023090000000000
C      -3.373810000000000      7.400260000000000      3.939400000000000
C      -2.453780000000000      5.075100000000000      3.780490000000000
C      -4.835820000000000      5.407250000000000      4.462140000000000
H      -2.350040000000000      7.825870000000000      4.009700000000000
H      -3.668110000000000      7.359120000000000      2.868260000000000
H      -4.080930000000000      8.083850000000000      4.452560000000000
H      -2.453110000000000      4.048560000000000      4.206870000000000
H      -2.761100000000000      5.006830000000000      2.713580000000000
H      -1.415210000000000      5.467900000000000      3.817010000000000
H      -4.862040000000000      4.387830000000000      4.906380000000000
H      -5.571340000000000      6.040460000000000      4.998480000000000
H      -5.161810000000000      5.337090000000000      3.402600000000000

-C 0
6-31g(d,p)
****
-H 0
6-31g(d,p)
****
-Mg 0
6-31g(d,p)
****
-N 0
6-31+g(d,p)
****
-Na 0
6-31g(d,p)
****
-O 0
6-31+g(d,p)
****


