%chk=lowest10_c1_a2_speciation7_speciationDFT38_speciationDFT96_rank06_E227.81.chk
%nprocshared=20
%mem=40GB
#p opt=loose PM7/gen scf=xqc 

lowest10_c1_a2_speciation7_speciationDFT38_speciationDFT96_rank06_E227.81 DFT input

0 1
Mg     -0.221560000000000     -0.398170000000000     -0.010400000000000
C       2.946800000000000     -1.198040000000000      1.265400000000000
C       2.996800000000000     -0.274770000000000     -0.934170000000000
O       2.260560000000000     -0.479090000000000      0.257110000000000
C       4.155840000000000     -0.458520000000000      1.830040000000000
C       3.340700000000000     -1.567420000000000     -1.669760000000000
H       2.224070000000000     -1.331660000000000      2.099150000000000
H       3.220670000000000     -2.219770000000000      0.940320000000000
H       2.339590000000000      0.303810000000000     -1.613340000000000
H       3.883980000000000      0.369840000000000     -0.770450000000000
H       2.426750000000000     -2.179520000000000     -1.815890000000000
H       3.767050000000000     -1.317440000000000     -2.663560000000000
H       4.097190000000000     -2.150950000000000     -1.109250000000000
H       3.868200000000000      0.555770000000000      2.172420000000000
H       4.553920000000000     -1.028450000000000      2.695690000000000
H       4.957730000000000     -0.382170000000000      1.069630000000000
H      -0.268730000000000     -2.725100000000000      1.840890000000000
C       0.438040000000000     -3.749810000000000      0.033500000000000
C      -0.441380000000000     -2.744510000000000      0.744990000000000
C       0.102270000000000     -5.149140000000000      0.520570000000000
H       0.271880000000000     -3.678350000000000     -1.061210000000000
H       1.500630000000000     -3.517940000000000      0.241990000000000
H       0.269290000000000     -5.203090000000000      1.618530000000000
H      -0.967170000000000     -5.362770000000000      0.304290000000000
C       0.973350000000000     -6.184470000000000     -0.172370000000000
H      -1.514220000000000     -2.877840000000000      0.494610000000000
H       0.809640000000000     -6.149100000000000     -1.270700000000000
H       2.045320000000000     -5.989830000000000      0.045580000000000
H       0.703840000000000     -7.192410000000000      0.202610000000000
C      -2.366700000000000      3.898030000000000      0.980230000000000
C      -3.239900000000000      3.640510000000000     -0.045190000000000
C      -2.533410000000000      2.989690000000000     -1.050120000000000
C      -1.266530000000000      2.838290000000000     -0.638140000000000
N      -1.099520000000000      3.412730000000000      0.631430000000000
C      -0.101010000000000      2.223200000000000     -1.389150000000000
N      -0.169380000000000      0.773490000000000     -1.638590000000000
C      -0.928320000000000      0.144000000000000     -2.730270000000000
H      -4.288340000000000      3.910340000000000     -0.050870000000000
H      -2.595840000000000      4.393780000000000      1.913250000000000
H      -2.951760000000000      2.686220000000000     -1.991860000000000
H       0.788820000000000      2.368000000000000     -0.737330000000000
H       0.108240000000000      2.784020000000000     -2.316640000000000
C      -1.042840000000000      1.078170000000000     -3.937820000000000
C      -0.149950000000000     -1.115100000000000     -3.157550000000000
C      -2.310800000000000     -0.317730000000000     -2.226290000000000
H      -0.024410000000000      1.379650000000000     -4.267210000000000
H      -1.555840000000000      0.567980000000000     -4.777890000000000
H      -1.616220000000000      1.986890000000000     -3.677890000000000
H      -0.033560000000000     -1.808620000000000     -2.300470000000000
H      -0.682450000000000     -1.659340000000000     -3.966040000000000
H       0.867680000000000     -0.851700000000000     -3.516380000000000
H      -2.207550000000000     -1.073910000000000     -1.416360000000000
H      -2.908170000000000      0.509280000000000     -1.818000000000000
H      -2.887540000000000     -0.784070000000000     -3.053540000000000
C      -1.280610000000000      0.870020000000000      2.681290000000000
C       0.925460000000000      1.636790000000000      2.341840000000000
O      -0.019610000000000      0.614700000000000      2.094110000000000
C      -2.395670000000000      0.363770000000000      1.763420000000000
C       1.484460000000000      1.538750000000000      3.745930000000000
H      -1.339020000000000      0.317340000000000      3.640430000000000
H      -1.467200000000000      1.948870000000000      2.872040000000000
H       1.753920000000000      1.520960000000000      1.615000000000000
H       0.533570000000000      2.651510000000000      2.162980000000000
H       1.920060000000000      0.531800000000000      3.908170000000000
H       2.270470000000000      2.310910000000000      3.876530000000000
H       0.672150000000000      1.719210000000000      4.478640000000000
H      -2.385050000000000      0.891470000000000      0.792350000000000
H      -2.284700000000000     -0.720580000000000      1.561930000000000
H      -3.382940000000000      0.536480000000000      2.239080000000000
Na     -2.621330000000000    -10.720940000000001     -8.214850000000000
C      -3.357910000000000     -8.815400000000000    -10.675160000000000
C      -5.193220000000000     -8.683040000000000     -9.221259999999999
O      -4.165720000000000     -9.505050000000001     -9.741140000000000
C      -2.191530000000000     -8.123650000000000     -9.976720000000000
C      -6.458220000000000     -8.779470000000000    -10.070280000000000
H      -2.945790000000000     -9.563490000000000    -11.385199999999999
H      -3.935870000000000     -8.090790000000000    -11.291900000000000
H      -5.428850000000000     -9.044280000000001     -8.197490000000000
H      -4.879110000000000     -7.621190000000000     -9.110569999999999
H      -6.821100000000000     -9.827489999999999    -10.109780000000001
H      -7.252640000000000     -8.148440000000001     -9.620080000000000
H      -6.265020000000000     -8.424060000000001    -11.103330000000000
H      -1.580400000000000     -8.868180000000001     -9.424780000000000
H      -1.550700000000000     -7.624130000000000    -10.732500000000000
H      -2.560540000000000     -7.358450000000000     -9.263780000000001
C      -2.742890000000000     -8.196580000000001     -5.982240000000000
C      -1.630210000000000    -10.104780000000000     -5.085970000000000
O      -2.422810000000000     -9.568510000000000     -6.131110000000000
C      -1.524720000000000     -7.272550000000000     -6.003300000000000
C      -2.323430000000000    -10.091220000000000     -3.723520000000000
H      -3.366390000000000     -7.922900000000000     -6.859130000000000
H      -3.384300000000000     -8.017139999999999     -5.095340000000000
H      -1.450130000000000    -11.170620000000000     -5.343480000000000
H      -0.624850000000000     -9.637079999999999     -5.045290000000000
H      -3.314220000000000    -10.587109999999999     -3.795900000000000
H      -1.697790000000000    -10.640120000000000     -2.988890000000000
H      -2.448890000000000     -9.054690000000001     -3.350800000000000
H      -0.921990000000000     -7.453920000000000     -6.917960000000000
H      -1.869330000000000     -6.217970000000000     -6.002320000000000
H      -0.895080000000000     -7.420140000000000     -5.102840000000000
Na     -5.240370000000000    -11.527180000000000    -10.461240000000000
C      -2.995150000000000    -13.583920000000001     -9.104830000000000
C      -4.796920000000000    -13.166729999999999     -7.670800000000000
O      -3.993810000000000    -12.662559999999999     -8.718560000000000
C      -2.421300000000000    -13.146950000000000    -10.446730000000001
C      -4.110140000000000    -13.036280000000000     -6.312880000000000
H      -2.168560000000000    -13.585240000000001     -8.362430000000000
H      -3.400280000000000    -14.612349999999999     -9.237000000000000
H      -5.722070000000000    -12.552000000000000     -7.642390000000000
H      -5.129440000000000    -14.211570000000000     -7.858980000000000
H      -3.840510000000000    -11.977080000000001     -6.122290000000000
H      -4.802760000000000    -13.377060000000000     -5.515070000000000
H      -3.195290000000000    -13.661780000000000     -6.270940000000000
H      -2.003360000000000    -12.120279999999999    -10.370400000000000
H      -1.612460000000000    -13.841659999999999    -10.756349999999999
H      -3.214890000000000    -13.154700000000000    -11.222770000000001
C      -6.344540000000000    -13.974769999999999    -12.409850000000000
C      -5.443530000000000    -12.296900000000001    -13.726020000000000
O      -5.631850000000000    -12.761559999999999    -12.411530000000001
C      -6.541170000000000    -14.407489999999999    -10.963130000000000
C      -4.644480000000000    -11.002260000000000    -13.660600000000001
H      -7.350000000000000    -13.847099999999999    -12.870860000000000
H      -5.767730000000000    -14.770300000000001    -12.932750000000000
H      -4.860850000000000    -13.031269999999999    -14.326570000000000
H      -6.420990000000000    -12.076409999999999    -14.211290000000000
H      -3.660590000000000    -11.190060000000001    -13.179819999999999
H      -4.475780000000000    -10.604390000000000    -14.682760000000000
H      -5.196000000000000    -10.243639999999999    -13.063879999999999
H      -7.114490000000000    -13.634100000000000    -10.407679999999999
H      -7.095310000000000    -15.367929999999999    -10.921680000000000
H      -5.554880000000000    -14.541270000000001    -10.472490000000001
Mg     -3.105630000000000     -1.057700000000000    -10.624430000000000
C      -4.943580000000000     -0.326400000000000     -7.908780000000000
C      -6.250420000000000     -0.012120000000000     -9.884790000000001
O      -4.968830000000000     -0.207990000000000     -9.321370000000000
C      -5.904210000000000     -1.367160000000000     -7.327780000000000
C      -6.864190000000000      1.332010000000000     -9.511250000000000
H      -3.922450000000000     -0.669120000000000     -7.647060000000000
H      -5.072350000000000      0.663010000000000     -7.424360000000000
H      -6.120540000000000     -0.019060000000000    -10.984620000000000
H      -6.931860000000000     -0.860940000000000     -9.677250000000001
H      -7.812040000000000      1.465580000000000    -10.073309999999999
H      -6.169560000000000      2.156430000000000     -9.774330000000001
H      -7.088390000000000      1.370060000000000     -8.426900000000000
H      -5.754990000000000     -2.347190000000000     -7.816450000000000
H      -6.958270000000000     -1.044600000000000     -7.446680000000000
H      -5.704770000000000     -1.487600000000000     -6.243800000000000
H      -2.357930000000000      1.458110000000000    -11.241339999999999
C      -2.707450000000000      0.522790000000000    -13.189480000000000
C      -2.156510000000000      0.496250000000000    -11.755140000000001
C      -4.238840000000000      0.661960000000000    -13.293279999999999
H      -2.225270000000000      1.355210000000000    -13.744260000000001
H      -2.430920000000000     -0.433470000000000    -13.683059999999999
H      -4.515220000000000      0.651690000000000    -14.371449999999999
H      -4.728590000000000     -0.210700000000000    -12.814679999999999
C      -4.785700000000000      1.953320000000000    -12.684889999999999
H      -1.062400000000000      0.321340000000000    -11.774780000000000
H      -4.589890000000000      1.986080000000000    -11.595380000000000
H      -4.325060000000000      2.839180000000000    -13.169530000000000
H      -5.886310000000000      1.998810000000000    -12.838240000000001
C      -6.326870000000000     -3.288830000000000    -11.256200000000000
C      -5.347410000000000     -3.111240000000000    -12.205890000000000
C      -4.125910000000000     -3.274120000000000    -11.578340000000001
C      -4.353050000000000     -3.521500000000000    -10.284610000000001
N      -5.733880000000000     -3.570520000000000    -10.013690000000000
C      -3.284710000000000     -3.686850000000000     -9.236860000000000
N      -2.507360000000000     -2.442760000000000     -9.150840000000001
C      -1.299790000000000     -2.408490000000000     -8.290229999999999
H      -5.513030000000000     -2.868230000000000    -13.247479999999999
H      -7.391520000000000     -3.212560000000000    -11.425459999999999
H      -3.153450000000000     -3.174140000000000    -12.040740000000000
H      -2.647490000000000     -4.547380000000000     -9.518090000000001
H      -3.775960000000000     -3.889510000000000     -8.261799999999999
C      -0.205850000000000     -3.345570000000000     -8.840130000000000
C      -0.753060000000000     -0.971800000000000     -8.264820000000000
C      -1.646490000000000     -2.821880000000000     -6.841010000000000
H       0.070490000000000     -3.056830000000000     -9.875670000000000
H       0.705190000000000     -3.293930000000000     -8.203670000000001
H      -0.538360000000000     -4.403670000000000     -8.841120000000000
H      -1.506540000000000     -0.269570000000000     -7.850080000000000
H       0.159410000000000     -0.911260000000000     -7.629690000000000
H      -0.486340000000000     -0.638150000000000     -9.289470000000000
H      -2.427630000000000     -2.155740000000000     -6.416680000000000
H      -2.013400000000000     -3.867310000000000     -6.793990000000000
H      -0.747690000000000     -2.760030000000000     -6.189790000000000

-C 0
6-31g(d,p)
****
-H 0
6-31g(d,p)
****
-Mg 0
6-31g(d,p)
****
-N 0
6-31+g(d,p)
****
-Na 0
6-31g(d,p)
****
-O 0
6-31+g(d,p)
****


