%chk=lowest10_c1_a2_speciation0_speciationDFT36_speciationDFT36_rank08_E181.87.chk
%nprocshared=20
%mem=40GB
#p opt=loose PM7/gen scf=xqc 

lowest10_c1_a2_speciation0_speciationDFT36_speciationDFT36_rank08_E181.87 DFT input

0 1
Mg     -0.671340000000000      0.459240000000000     -0.045880000000000
C       3.027580000000000     -0.201570000000000     -0.102960000000000
C       2.512980000000000      0.845640000000000      1.886500000000000
O       2.249280000000000      0.815330000000000      0.498100000000000
C       3.092890000000000      0.024870000000000     -1.605800000000000
C       1.612990000000000      1.874320000000000      2.558340000000000
H       4.077390000000000     -0.195980000000000      0.266050000000000
H       2.575020000000000     -1.196300000000000      0.089180000000000
H       2.323310000000000     -0.143540000000000      2.353480000000000
H       3.566370000000000      1.141110000000000      2.076780000000000
H       0.545200000000000      1.608020000000000      2.424090000000000
H       1.833920000000000      1.909210000000000      3.645750000000000
H       1.793180000000000      2.878730000000000      2.121960000000000
H       3.540530000000000      1.014910000000000     -1.826350000000000
H       3.699420000000000     -0.773430000000000     -2.081640000000000
H       2.087800000000000     -0.002190000000000     -2.049550000000000
H      -0.318710000000000      3.502920000000000      0.829490000000000
C      -2.395870000000000      2.765540000000000      0.774040000000000
C      -0.996690000000000      2.908110000000000      0.187210000000000
C      -2.367560000000000      2.109990000000000      2.161780000000000
H      -2.837750000000000      3.779930000000000      0.842830000000000
H      -3.016080000000000      2.142390000000000      0.091430000000000
H      -1.982210000000000      1.068660000000000      2.089430000000000
H      -1.701800000000000      2.688660000000000      2.836970000000000
C      -3.766050000000000      2.080830000000000      2.774050000000000
H      -1.028070000000000      3.306500000000000     -0.847360000000000
H      -4.157860000000000      3.115900000000000      2.867450000000000
H      -4.458990000000000      1.487270000000000      2.140720000000000
H      -3.727420000000000      1.625770000000000      3.786460000000000
C       0.058060000000000     -1.328370000000000      2.460000000000000
C       0.464080000000000     -2.648380000000000      2.544690000000000
C       0.483240000000000     -3.144590000000000      1.249330000000000
C       0.104570000000000     -2.106380000000000      0.430350000000000
N      -0.137710000000000     -1.017320000000000      1.172300000000000
C      -0.068780000000000     -2.115430000000000     -1.078130000000000
N      -0.175560000000000     -0.735890000000000     -1.607170000000000
C      -0.732710000000000     -0.520570000000000     -2.957690000000000
H       0.715230000000000     -3.186260000000000      3.447100000000000
H      -0.067330000000000     -0.640250000000000      3.288850000000000
H       0.752450000000000     -4.143910000000000      0.937040000000000
H       0.810050000000000     -2.601870000000000     -1.547120000000000
H      -0.983230000000000     -2.703280000000000     -1.288990000000000
C      -2.250390000000000     -0.775230000000000     -2.976900000000000
C      -0.482240000000000      0.946190000000000     -3.364330000000000
C      -0.021970000000000     -1.436070000000000     -3.974350000000000
H      -2.770740000000000     -0.080240000000000     -2.283080000000000
H      -2.652050000000000     -0.612100000000000     -4.001150000000000
H      -2.493780000000000     -1.815280000000000     -2.685050000000000
H       0.602230000000000      1.182910000000000     -3.379030000000000
H      -0.886250000000000      1.148210000000000     -4.381140000000000
H      -0.977350000000000      1.640760000000000     -2.654120000000000
H       1.075450000000000     -1.258970000000000     -3.947700000000000
H      -0.209360000000000     -2.505150000000000     -3.743750000000000
H      -0.384180000000000     -1.240540000000000     -5.005570000000000
Na     -0.411940000000000     13.769869999999999      6.597550000000000
C       0.769640000000000     10.910090000000000      7.692910000000000
C      -1.533380000000000     10.896369999999999      7.724860000000000
O      -0.380970000000000     11.617319999999999      8.103960000000001
C       2.008500000000000     11.686040000000000      8.117060000000000
C      -2.771810000000000     11.666570000000000      8.159260000000000
H       0.813900000000000      9.907530000000000      8.177049999999999
H       0.795260000000000     10.808780000000000      6.584000000000000
H      -1.579030000000000     10.774640000000000      6.618420000000000
H      -1.559750000000000      9.906350000000000      8.230680000000000
H      -2.791940000000000     12.664930000000000      7.673040000000000
H      -3.684230000000000     11.105300000000000      7.865390000000000
H      -2.771850000000000     11.798800000000000      9.262110000000000
H       2.027910000000000     11.801259999999999      9.221670000000000
H       2.921430000000000     11.140560000000001      7.796850000000000
H       2.008460000000000     12.692629999999999      7.647200000000000
Na     -0.352040000000000     11.387850000000000     10.729390000000000
Mg     -0.958410000000000      4.652210000000000      7.946630000000000
C       0.302860000000000      4.339290000000000     11.591900000000001
C      -2.001700000000000      4.398390000000000     11.649699999999999
O      -0.849570000000000      4.950850000000000     11.047190000000001
C       1.521270000000000      5.198120000000000     11.290850000000001
C      -3.245880000000000      4.969430000000000     10.984360000000001
H       0.242740000000000      4.247310000000000     12.700080000000000
H       0.452140000000000      3.334930000000000     11.141769999999999
H      -2.023950000000000      3.292300000000000     11.536110000000001
H      -2.041410000000000      4.664650000000000     12.728380000000000
H      -3.256640000000000      4.719100000000000      9.904270000000000
H      -4.154560000000000      4.541250000000000     11.458119999999999
H      -3.265650000000000      6.073250000000000     11.100470000000000
H       1.398100000000000      6.206440000000000     11.736770000000000
H       2.432580000000000      4.719190000000000     11.705399999999999
H       1.655510000000000      5.312630000000000     10.203749999999999
H      -3.005910000000000      7.131140000000000      8.736660000000001
C      -3.122080000000000      6.337050000000000      6.697860000000000
C      -2.336270000000000      6.805690000000000      7.915220000000000
C      -4.022380000000000      5.144020000000000      7.040720000000000
H      -3.736730000000000      7.187320000000000      6.336130000000000
H      -2.409090000000000      6.038510000000000      5.897500000000000
H      -3.402310000000000      4.274190000000000      7.349970000000000
H      -4.700650000000000      5.412820000000000      7.878580000000000
C      -4.873360000000000      4.743200000000000      5.839590000000000
H      -1.636550000000000      7.619010000000000      7.638650000000000
H      -5.518080000000000      5.594060000000000      5.531620000000000
H      -4.227060000000000      4.447800000000000      4.986780000000000
H      -5.525060000000000      3.885670000000000      6.109810000000000
C      -2.159660000000000      2.012620000000000      9.222880000000000
C      -1.564760000000000      0.811340000000000      9.564690000000001
C      -0.221320000000000      0.918500000000000      9.234370000000000
C      -0.050850000000000      2.188410000000000      8.725630000000001
N      -1.223610000000000      2.832030000000000      8.719730000000000
C       1.226810000000000      2.830560000000000      8.209220000000000
N       1.043320000000000      4.293060000000000      8.040770000000000
C       1.975190000000000      5.045140000000000      7.178320000000000
H      -2.056190000000000     -0.046710000000000     10.002730000000000
H      -3.204550000000000      2.269750000000000      9.343190000000000
H       0.541190000000000      0.163330000000000      9.363450000000000
H       2.036910000000000      2.670040000000000      8.949600000000000
H       1.488780000000000      2.330590000000000      7.255740000000000
C       1.713850000000000      4.735060000000000      5.694880000000000
C       1.742490000000000      6.552680000000000      7.409650000000000
C       3.435460000000000      4.715850000000000      7.550300000000000
H       0.671260000000000      5.006230000000000      5.421510000000000
H       2.407880000000000      5.319660000000000      5.052080000000000
H       1.869840000000000      3.661850000000000      5.472260000000000
H       1.923970000000000      6.831040000000000      8.468980000000000
H       2.429400000000000      7.159590000000000      6.779390000000000
H       0.699660000000000      6.834850000000000      7.153720000000000
H       3.617260000000000      4.935870000000000      8.625060000000000
H       3.662160000000000      3.644710000000000      7.369400000000000
H       4.143320000000000      5.320720000000000      6.944660000000000

-C 0
6-31g(d,p)
****
-H 0
6-31g(d,p)
****
-Mg 0
6-31g(d,p)
****
-N 0
6-31+g(d,p)
****
-Na 0
6-31g(d,p)
****
-O 0
6-31+g(d,p)
****


