%chk=lowest10_c1_a2_speciation0_speciationDFT1_speciationDFT36_rank06_E181.38.chk
%nprocshared=20
%mem=40GB
#p opt=loose PM7/gen scf=xqc 

lowest10_c1_a2_speciation0_speciationDFT1_speciationDFT36_rank06_E181.38 DFT input

0 1
Mg      0.703660000000000      0.406020000000000      0.088610000000000
C      -2.977450000000000      0.050450000000000     -0.580890000000000
C      -1.877220000000000      0.101690000000000     -2.607400000000000
O      -1.929320000000000      0.659810000000000     -1.309740000000000
C      -3.328150000000000      0.908520000000000      0.625230000000000
C      -0.694860000000000      0.684630000000000     -3.370230000000000
H      -3.906440000000000     -0.043230000000000     -1.186250000000000
H      -2.665910000000000     -0.953780000000000     -0.226510000000000
H      -1.757960000000000     -1.001300000000000     -2.566310000000000
H      -2.800190000000000      0.346470000000000     -3.174270000000000
H       0.258970000000000      0.440680000000000     -2.860410000000000
H      -0.665540000000000      0.260360000000000     -4.396200000000000
H      -0.795800000000000      1.787620000000000     -3.440360000000000
H      -3.641700000000000      1.920630000000000      0.298700000000000
H      -4.147450000000000      0.431470000000000      1.202220000000000
H      -2.461720000000000      1.018220000000000      1.292440000000000
H       1.060430000000000      2.785730000000000     -2.000640000000000
C       2.924150000000000      2.026370000000000     -1.100110000000000
C       1.474670000000000      2.489630000000000     -1.017390000000000
C       3.088170000000000      0.837090000000000     -2.056600000000000
H       3.532630000000000      2.883330000000000     -1.452660000000000
H       3.269620000000000      1.725640000000000     -0.085680000000000
H       2.529050000000000     -0.045810000000000     -1.674640000000000
H       2.689260000000000      1.103200000000000     -3.058550000000000
C       4.561250000000000      0.464670000000000     -2.208800000000000
H       1.347100000000000      3.294460000000000     -0.265120000000000
H       5.130260000000000      1.331080000000000     -2.609130000000000
H       4.993350000000000      0.166800000000000     -1.229890000000000
H       4.666230000000000     -0.382910000000000     -2.918710000000000
C       0.247000000000000     -2.244850000000000     -1.575880000000000
C      -0.345020000000000     -3.445180000000000     -1.225040000000000
C      -0.726840000000000     -3.329570000000000      0.103740000000000
C      -0.366970000000000     -2.062960000000000      0.501830000000000
N       0.208110000000000     -1.418790000000000     -0.522490000000000
C      -0.528220000000000     -1.427840000000000      1.871650000000000
N      -0.310260000000000      0.036030000000000      1.805280000000000
C      -0.030540000000000      0.782540000000000      3.048360000000000
H      -0.480520000000000     -4.305120000000000     -1.864550000000000
H       0.661820000000000     -1.991990000000000     -2.545510000000000
H      -1.219860000000000     -4.077560000000000      0.708800000000000
H      -1.556020000000000     -1.611370000000000      2.244450000000000
H       0.208290000000000     -1.918330000000000      2.537380000000000
C       1.383100000000000      0.473750000000000      3.572680000000000
C      -0.115730000000000      2.292440000000000      2.744650000000000
C      -1.085940000000000      0.440080000000000      4.118380000000000
H       2.149430000000000      0.768260000000000      2.823560000000000
H       1.574960000000000      1.040660000000000      4.510150000000000
H       1.507500000000000     -0.602300000000000      3.802420000000000
H      -1.122810000000000      2.574630000000000      2.372590000000000
H       0.086560000000000      2.891070000000000      3.660440000000000
H       0.629870000000000      2.580880000000000      1.974650000000000
H      -2.107130000000000      0.649690000000000      3.731440000000000
H      -1.029840000000000     -0.631910000000000      4.397000000000000
H      -0.928890000000000      1.040910000000000      5.038730000000000
Na     -1.366030000000000     -4.060060000000000      8.894439999999999
C      -3.898680000000000     -3.172320000000000      7.010910000000000
C      -3.737040000000000     -5.467980000000000      7.106690000000000
O      -3.026560000000000     -4.272460000000000      6.865190000000000
C      -3.131650000000000     -1.887270000000000      6.735110000000000
C      -2.788060000000000     -6.649410000000000      6.963880000000000
H      -4.734240000000000     -3.230970000000000      6.278330000000000
H      -4.294630000000000     -3.116600000000000      8.050430000000000
H      -4.144110000000000     -5.484020000000000      8.143549999999999
H      -4.556400000000000     -5.597490000000000      6.363130000000000
H      -1.958180000000000     -6.563990000000000      7.697400000000000
H      -3.336720000000000     -7.596570000000000      7.152200000000000
H      -2.364510000000000     -6.677740000000000      5.937450000000000
H      -2.728810000000000     -1.900170000000000      5.700780000000000
H      -3.809070000000000     -1.014070000000000      6.845520000000000
H      -2.290410000000000     -1.782000000000000      7.452800000000000
Na     -2.544490000000000     -4.357420000000000      4.273390000000000
Mg     -8.318330000000000     -6.494400000000000      1.726480000000000
H     -10.392260000000000     -7.553330000000000     -0.300760000000000
C     -11.463609999999999     -5.833860000000000      0.521880000000000
C     -10.563610000000001     -7.046520000000000      0.671200000000000
C     -12.836000000000000     -6.272490000000000      0.019040000000000
H     -11.560050000000000     -5.329720000000000      1.508130000000000
H     -10.996540000000000     -5.123890000000000     -0.195430000000000
H     -12.721590000000001     -6.784000000000000     -0.961530000000000
H     -13.283300000000001     -6.984660000000000      0.746630000000000
C     -13.769019999999999     -5.082180000000000     -0.148040000000000
H     -10.958940000000000     -7.755980000000000      1.428030000000000
H     -13.912530000000000     -4.566700000000000      0.825320000000000
H     -13.349180000000000     -4.366230000000000     -0.886200000000000
H     -14.753299999999999     -5.441040000000000     -0.514100000000000
C      -6.022210000000000     -8.563860000000000      1.021210000000000
C      -4.650730000000000     -8.518300000000000      1.209680000000000
C      -4.364950000000000     -7.299670000000000      1.807320000000000
C      -5.570740000000000     -6.648140000000000      1.944110000000000
N      -6.560530000000000     -7.421910000000000      1.477730000000000
C      -5.821130000000000     -5.271400000000000      2.533840000000000
N      -7.233430000000000     -4.885150000000000      2.327280000000000
C      -7.745850000000000     -3.581590000000000      2.784580000000000
H      -3.937980000000000     -9.287509999999999      0.945260000000000
H      -6.584600000000000     -9.379099999999999      0.583840000000000
H      -3.392260000000000     -6.928450000000000      2.099000000000000
H      -5.161740000000000     -4.546960000000000      2.019370000000000
H      -5.576170000000000     -5.315210000000000      3.614820000000000
C      -7.051670000000000     -2.447860000000000      2.006000000000000
C      -9.257130000000000     -3.516300000000000      2.497850000000000
C      -7.520140000000000     -3.407900000000000      4.296280000000000
H      -7.224700000000000     -2.571300000000000      0.914230000000000
H      -7.448670000000000     -1.457490000000000      2.314900000000000
H      -5.958010000000000     -2.443810000000000      2.188470000000000
H      -9.797459999999999     -4.315350000000000      3.049000000000000
H      -9.674239999999999     -2.534370000000000      2.814990000000000
H      -9.458119999999999     -3.640950000000000      1.412180000000000
H      -8.017379999999999     -4.228180000000000      4.857460000000000
H      -6.438670000000000     -3.414910000000000      4.537900000000000
H      -7.935970000000000     -2.437650000000000      4.643480000000000

-C 0
6-31g(d,p)
****
-H 0
6-31g(d,p)
****
-Mg 0
6-31g(d,p)
****
-N 0
6-31+g(d,p)
****
-Na 0
6-31g(d,p)
****
-O 0
6-31+g(d,p)
****


