%chk=lowest10_c1_a2_speciation7_speciationDFT1_speciationDFT2_rank07_E222.32.chk
%nprocshared=20
%mem=40GB
#p opt=loose PM7/gen scf=xqc 

lowest10_c1_a2_speciation7_speciationDFT1_speciationDFT2_rank07_E222.32 DFT input

0 1
Mg     -0.912360000000000     -0.174780000000000      0.053670000000000
H      -2.226430000000000      0.629470000000000     -2.538550000000000
C      -3.066970000000000      2.122500000000000     -1.153000000000000
C      -2.647910000000000      0.705320000000000     -1.515780000000000
C      -1.892460000000000      3.113330000000000     -1.078790000000000
H      -3.817000000000000      2.466790000000000     -1.894010000000000
H      -3.544960000000000      2.095320000000000     -0.149700000000000
H      -2.310510000000000      4.112390000000000     -0.827220000000000
H      -1.192770000000000      2.821190000000000     -0.266950000000000
C      -1.105940000000000      3.230800000000000     -2.382850000000000
H      -3.481600000000000     -0.013280000000000     -1.389790000000000
H      -0.588180000000000      2.276560000000000     -2.613920000000000
H      -1.781970000000000      3.501540000000000     -3.220090000000000
H      -0.331140000000000      4.019810000000000     -2.276750000000000
C      -0.003120000000000      1.902130000000000      2.279280000000000
C       1.119230000000000      1.937580000000000      3.091430000000000
C       1.888010000000000      0.832000000000000      2.762280000000000
C       1.214040000000000      0.179510000000000      1.756890000000000
N       0.073070000000000      0.828620000000000      1.479320000000000
C       1.619650000000000     -1.094730000000000      1.043320000000000
N       0.759390000000000     -1.309760000000000     -0.138040000000000
C       0.976130000000000     -2.466680000000000     -1.026230000000000
H       1.349860000000000      2.679360000000000      3.842770000000000
H      -0.819910000000000      2.614370000000000      2.283180000000000
H       2.834100000000000      0.539530000000000      3.197360000000000
H       1.513640000000000     -1.929240000000000      1.767030000000000
H       2.671530000000000     -0.995000000000000      0.719390000000000
C       0.922590000000000     -3.788670000000000     -0.238760000000000
C      -0.127430000000000     -2.483910000000000     -2.100710000000000
C       2.340100000000000     -2.321730000000000     -1.728860000000000
H      -0.057600000000000     -3.895570000000000      0.273410000000000
H       1.060320000000000     -4.653680000000000     -0.923210000000000
H       1.730270000000000     -3.833410000000000      0.520350000000000
H      -0.125730000000000     -1.537960000000000     -2.684100000000000
H       0.031550000000000     -3.327690000000000     -2.809570000000000
H      -1.129660000000000     -2.606890000000000     -1.637100000000000
H       2.372680000000000     -1.372880000000000     -2.308510000000000
H       3.172640000000000     -2.310350000000000     -0.997020000000000
H       2.520010000000000     -3.168090000000000     -2.424450000000000
Na     -9.695259999999999    -10.733910000000000     -4.926280000000000
C     -10.449579999999999     -7.772420000000000     -5.850710000000000
C      -9.739730000000000     -7.575150000000000     -3.623540000000000
O     -10.403860000000000     -8.383770000000000     -4.576010000000000
C      -9.219040000000000     -8.140160000000000     -6.673720000000000
C     -10.718579999999999     -6.645390000000000     -2.910830000000000
H     -11.348750000000001     -8.154400000000001     -6.379050000000000
H     -10.571980000000000     -6.667440000000000     -5.793350000000000
H      -9.282760000000000     -8.249570000000000     -2.868250000000000
H      -8.901500000000000     -6.992060000000000     -4.065450000000000
H     -11.506970000000001     -7.232500000000000     -2.395540000000000
H     -10.171760000000001     -6.046410000000000     -2.152700000000000
H     -11.197410000000000     -5.952410000000000     -3.632870000000000
H      -9.149410000000000     -9.242179999999999     -6.787860000000000
H      -9.296160000000000     -7.680290000000000     -7.680760000000000
H      -8.295909999999999     -7.768380000000000     -6.184390000000000
C      -6.481290000000000     -9.945300000000000     -4.325850000000000
C      -6.789260000000000    -12.305289999999999     -4.466470000000000
O      -7.394350000000000    -11.026930000000000     -4.381480000000000
C      -5.613650000000000     -9.806020000000000     -5.577040000000000
C      -5.951110000000000    -12.666660000000000     -3.240520000000000
H      -7.093720000000000     -9.021850000000001     -4.257540000000000
H      -5.872740000000000     -9.966440000000000     -3.398660000000000
H      -7.618960000000000    -13.042780000000000     -4.516790000000000
H      -6.221870000000000    -12.434749999999999     -5.411260000000000
H      -6.556570000000000    -12.546810000000001     -2.317560000000000
H      -5.620860000000000    -13.723420000000001     -3.321260000000000
H      -5.043360000000000    -12.033230000000000     -3.178730000000000
H      -6.253430000000000     -9.759050000000000     -6.483200000000000
H      -5.021670000000000     -8.870540000000000     -5.507250000000000
H      -4.899620000000000    -10.649559999999999     -5.664120000000000
Na    -12.481000000000000     -9.028530000000000     -3.577900000000000
C     -12.274620000000001    -12.235730000000000     -4.437760000000000
C     -11.389709999999999    -11.833840000000000     -2.308410000000000
O     -11.638620000000000    -11.299379999999999     -3.592670000000000
C     -12.835789999999999    -11.498690000000000     -5.647430000000000
C     -10.154170000000001    -12.731710000000000     -2.293370000000000
H     -11.537860000000000    -12.982860000000001     -4.802900000000000
H     -13.127490000000000    -12.744730000000001     -3.935000000000000
H     -11.192629999999999    -10.976520000000001     -1.629590000000000
H     -12.277469999999999    -12.357760000000001     -1.890260000000000
H      -9.269690000000001    -12.169800000000000     -2.657840000000000
H      -9.957590000000000    -13.070740000000001     -1.254700000000000
H     -10.308380000000000    -13.627280000000001     -2.929060000000000
H     -12.021990000000001    -10.966970000000000     -6.185580000000000
H     -13.313330000000001    -12.220969999999999     -6.342400000000000
H     -13.596719999999999    -10.757669999999999     -5.324980000000000
C     -15.731140000000000     -9.354030000000000     -3.013190000000000
C     -15.398619999999999     -7.861680000000000     -4.752220000000000
O     -14.784170000000000     -8.779019999999999     -3.880450000000000
C     -15.000220000000001    -10.310969999999999     -2.080860000000000
C     -14.328580000000001     -7.301060000000000     -5.679510000000000
H     -16.225100000000001     -8.575160000000000     -2.389430000000000
H     -16.485060000000001     -9.938879999999999     -3.586340000000000
H     -16.168550000000000     -8.365030000000001     -5.379340000000000
H     -15.843719999999999     -7.013850000000000     -4.184300000000000
H     -13.864330000000001     -8.125620000000000     -6.261800000000000
H     -14.776770000000001     -6.570470000000000     -6.384410000000000
H     -13.538130000000001     -6.792440000000000     -5.085960000000000
H     -14.235900000000001     -9.760380000000000     -1.490890000000000
H     -15.717689999999999    -10.791689999999999     -1.384220000000000
H     -14.492670000000000    -11.100090000000000     -2.673360000000000
Mg     -4.856170000000000     -4.883950000000000      0.848730000000000
H      -2.246720000000000     -6.285890000000000     -0.016900000000000
C      -3.325800000000000     -6.215580000000000     -1.917100000000000
C      -3.274190000000000     -6.417880000000000     -0.414240000000000
C      -2.462750000000000     -7.268700000000000     -2.605730000000000
H      -4.380310000000000     -6.301850000000000     -2.259330000000000
H      -2.956620000000000     -5.194090000000000     -2.156410000000000
H      -1.415000000000000     -7.178660000000000     -2.244560000000000
H      -2.846310000000000     -8.281240000000000     -2.351490000000000
C      -2.483080000000000     -7.095310000000000     -4.116900000000000
H      -3.693700000000000     -7.403310000000000     -0.121670000000000
H      -3.519980000000000     -7.195690000000000     -4.500100000000000
H      -2.084160000000000     -6.096460000000000     -4.393870000000000
H      -1.848860000000000     -7.878770000000000     -4.581220000000000
C      -4.016500000000000     -4.371960000000000      3.863180000000000
C      -4.468890000000000     -3.461340000000000      4.803830000000000
C      -5.446590000000000     -2.695330000000000      4.186730000000000
C      -5.538690000000000     -3.160350000000000      2.893470000000000
N      -4.681530000000000     -4.175040000000000      2.713990000000000
C      -6.454110000000000     -2.661400000000000      1.789350000000000
N      -6.108670000000000     -3.320400000000000      0.511690000000000
C      -6.829870000000000     -3.003350000000000     -0.733670000000000
H      -4.128600000000000     -3.367300000000000      5.826040000000000
H      -3.256210000000000     -5.127910000000000      4.014070000000000
H      -6.016620000000000     -1.888530000000000      4.626450000000000
H      -6.315550000000000     -1.568140000000000      1.689890000000000
H      -7.498180000000000     -2.892410000000000      2.083680000000000
C      -6.575610000000000     -1.534780000000000     -1.121730000000000
C      -6.291700000000000     -3.905090000000000     -1.859550000000000
C      -8.338340000000001     -3.259870000000000     -0.571520000000000
H      -5.485990000000000     -1.358320000000000     -1.247780000000000
H      -7.084520000000000     -1.284740000000000     -2.076830000000000
H      -6.955060000000000     -0.839980000000000     -0.345560000000000
H      -6.463840000000000     -4.976570000000000     -1.621980000000000
H      -6.802530000000000     -3.677630000000000     -2.821850000000000
H      -5.201100000000000     -3.747430000000000     -2.003130000000000
H      -8.520949999999999     -4.319050000000000     -0.289160000000000
H      -8.772679999999999     -2.602240000000000      0.208970000000000
H      -8.872909999999999     -3.050110000000000     -1.522980000000000

-C 0
6-31g(d,p)
****
-H 0
6-31g(d,p)
****
-Mg 0
6-31g(d,p)
****
-N 0
6-31+g(d,p)
****
-Na 0
6-31g(d,p)
****
-O 0
6-31+g(d,p)
****


