%chk=lowest10_c1_a2_speciation0_speciationDFT0_speciationDFT96_rank06_E186.47.chk
%nprocshared=20
%mem=40GB
#p opt=loose PM7/gen scf=xqc 

lowest10_c1_a2_speciation0_speciationDFT0_speciationDFT96_rank06_E186.47 DFT input

0 1
Mg      0.187320000000000      0.452730000000000     -0.180890000000000
C       0.214240000000000     -1.882380000000000     -2.776040000000000
C       1.731850000000000     -2.387500000000000     -1.004160000000000
O       0.604110000000000     -1.649560000000000     -1.435380000000000
C      -0.291620000000000     -3.298860000000000     -3.028650000000000
C       3.014170000000000     -2.040660000000000     -1.755930000000000
H      -0.631210000000000     -1.189740000000000     -2.978480000000000
H       1.006310000000000     -1.607130000000000     -3.498050000000000
H       1.905570000000000     -2.103680000000000      0.052770000000000
H       1.532770000000000     -3.478020000000000     -0.982810000000000
H       3.176820000000000     -0.943000000000000     -1.750310000000000
H       3.873390000000000     -2.532240000000000     -1.253910000000000
H       2.970370000000000     -2.408040000000000     -2.799920000000000
H      -1.097710000000000     -3.558670000000000     -2.313450000000000
H      -0.696650000000000     -3.357330000000000     -4.060740000000000
H       0.535890000000000     -4.029890000000000     -2.940160000000000
H      -0.426530000000000      1.657110000000000     -2.811320000000000
C       1.760700000000000      1.559590000000000     -2.986370000000000
C       0.489980000000000      1.818800000000000     -2.207280000000000
C       1.858640000000000      2.550650000000000     -4.132670000000000
H       2.636890000000000      1.667510000000000     -2.314400000000000
H       1.745700000000000      0.523720000000000     -3.377170000000000
H       0.971840000000000      2.432490000000000     -4.792860000000000
H       1.870350000000000      3.582930000000000     -3.719930000000000
C       3.124020000000000      2.315770000000000     -4.941530000000000
H       0.496510000000000      2.811390000000000     -1.711270000000000
H       4.019600000000000      2.439980000000000     -4.295900000000000
H       3.119670000000000      1.290540000000000     -5.369720000000000
H       3.166560000000000      3.054090000000000     -5.767440000000000
C      -3.031500000000000      0.138300000000000      3.453610000000000
C      -2.285570000000000      1.044490000000000      4.175050000000000
C      -0.953190000000000      0.778250000000000      3.898740000000000
C      -0.939190000000000     -0.230740000000000      3.031480000000000
N      -2.260670000000000     -0.629190000000000      2.776380000000000
C       0.250670000000000     -0.949190000000000      2.424940000000000
N       1.088590000000000     -0.171550000000000      1.494040000000000
C       2.117700000000000      0.796470000000000      1.898540000000000
H      -2.676610000000000      1.803780000000000      4.840690000000000
H      -4.108600000000000      0.055230000000000      3.436580000000000
H      -0.112250000000000      1.292180000000000      4.329300000000000
H      -0.167840000000000     -1.783640000000000      1.821870000000000
H       0.863650000000000     -1.418360000000000      3.210630000000000
C       2.726870000000000      0.423850000000000      3.252290000000000
C       3.230930000000000      0.752810000000000      0.832820000000000
C       1.540030000000000      2.226860000000000      1.901180000000000
H       3.132720000000000     -0.610320000000000      3.200960000000000
H       3.547560000000000      1.120660000000000      3.514340000000000
H       1.963640000000000      0.466710000000000      4.049940000000000
H       2.821030000000000      1.000530000000000     -0.166880000000000
H       4.035340000000000      1.484770000000000      1.061680000000000
H       3.681420000000000     -0.260360000000000      0.768500000000000
H       1.196600000000000      2.520600000000000      0.884170000000000
H       0.677090000000000      2.330980000000000      2.573070000000000
H       2.315030000000000      2.955690000000000      2.220820000000000
C      -2.955910000000000      0.744400000000000     -0.103660000000000
C      -2.439870000000000     -1.548970000000000     -0.304530000000000
O      -2.020760000000000     -0.220460000000000     -0.544040000000000
C      -2.222720000000000      1.963690000000000      0.460260000000000
C      -3.477450000000000     -1.985370000000000     -1.318950000000000
H      -3.559100000000000      1.070210000000000     -0.974600000000000
H      -3.638010000000000      0.366650000000000      0.688050000000000
H      -1.554280000000000     -2.209160000000000     -0.392060000000000
H      -2.811000000000000     -1.712760000000000      0.721730000000000
H      -3.075700000000000     -1.859100000000000     -2.345300000000000
H      -3.728400000000000     -3.052100000000000     -1.146260000000000
H      -4.392730000000000     -1.371610000000000     -1.197840000000000
H      -1.609800000000000      1.692310000000000      1.338470000000000
H      -1.548410000000000      2.410380000000000     -0.297450000000000
H      -2.958190000000000      2.731190000000000      0.777470000000000
Na     -1.294770000000000     -9.628019999999999      6.593590000000000
C      -0.561360000000000    -12.791829999999999      6.388600000000000
C       1.349540000000000    -11.513719999999999      6.234950000000000
O       0.040490000000000    -11.693070000000001      5.737930000000000
C      -1.969950000000000    -12.984610000000000      5.844300000000000
C       1.988460000000000    -10.319500000000000      5.540120000000000
H       0.008910000000000    -13.728540000000001      6.193110000000000
H      -0.643080000000000    -12.605860000000000      7.483750000000000
H       1.333020000000000    -11.300250000000000      7.328130000000000
H       1.978030000000000    -12.408140000000000      6.020730000000000
H       1.397910000000000     -9.399810000000000      5.738710000000000
H       3.021000000000000    -10.171600000000000      5.921730000000000
H       2.032750000000000    -10.494529999999999      4.443940000000000
H      -1.934290000000000    -13.184340000000001      4.752210000000000
H      -2.453360000000000    -13.846959999999999      6.350730000000000
H      -2.578930000000000    -12.073919999999999      6.027410000000000
Na      0.415590000000000    -12.554169999999999      3.276300000000000
Mg      0.942530000000000     -5.027660000000000      6.759660000000000
H       3.038420000000000     -2.947750000000000      5.649630000000000
C       1.826160000000000     -1.612120000000000      6.894410000000000
C       1.988880000000000     -2.815200000000000      5.981260000000000
C       2.687010000000000     -1.706430000000000      8.161809999999999
H       2.121950000000000     -0.707740000000000      6.323610000000000
H       0.757760000000000     -1.510610000000000      7.180960000000000
H       3.760670000000000     -1.798280000000000      7.888180000000000
H       2.550490000000000     -0.762220000000000      8.729740000000000
C       2.295930000000000     -2.867660000000000      9.078920000000000
H       1.317730000000000     -2.728880000000000      5.101700000000000
H       2.498740000000000     -3.843540000000000      8.593370000000000
H       2.896380000000000     -2.812740000000000     10.012680000000000
H       1.220450000000000     -2.807260000000000      9.351060000000000
C       3.051550000000000     -6.977270000000000      8.120030000000000
C       2.892710000000000     -8.032740000000000      9.003090000000000
C       1.535650000000000     -8.138000000000000      9.267810000000001
C       0.928000000000000     -7.130210000000000      8.552060000000001
N       1.845960000000000     -6.449230000000000      7.853580000000000
C      -0.548960000000000     -6.787850000000000      8.499639999999999
N      -0.734910000000000     -5.489790000000000      7.817000000000000
C      -2.075480000000000     -4.895480000000000      7.669550000000000
H       3.676360000000000     -8.658830000000000      9.407660000000000
H       3.984960000000000     -6.624780000000000      7.700820000000000
H       1.051310000000000     -8.854749999999999      9.916460000000001
H      -1.069670000000000     -7.602550000000000      7.957930000000000
H      -0.927050000000000     -6.715410000000000      9.536370000000000
C      -2.642930000000000     -4.545650000000000      9.059410000000000
C      -1.949330000000000     -3.595140000000000      6.854970000000000
C      -3.025900000000000     -5.856000000000000      6.933170000000000
H      -1.957520000000000     -3.847090000000000      9.588229999999999
H      -3.638020000000000     -4.060450000000000      8.969080000000000
H      -2.768810000000000     -5.451780000000000      9.685760000000000
H      -1.548920000000000     -3.801610000000000      5.839410000000000
H      -2.942000000000000     -3.104200000000000      6.744310000000000
H      -1.266600000000000     -2.880450000000000      7.361220000000000
H      -2.619380000000000     -6.109320000000000      5.930790000000000
H      -3.168970000000000     -6.794020000000000      7.508070000000000
H      -4.025540000000000     -5.387840000000000      6.802510000000000

-C 0
6-31g(d,p)
****
-H 0
6-31g(d,p)
****
-Mg 0
6-31g(d,p)
****
-N 0
6-31+g(d,p)
****
-Na 0
6-31g(d,p)
****
-O 0
6-31+g(d,p)
****


