%chk=lowest10_c1_a2_speciation7_speciationDFT2_speciationDFT36_rank09_E223.92.chk
%nprocshared=20
%mem=40GB
#p opt=loose PM7/gen scf=xqc 

lowest10_c1_a2_speciation7_speciationDFT2_speciationDFT36_rank09_E223.92 DFT input

0 1
Mg     -0.292910000000000      0.401570000000000      0.666420000000000
C       0.967580000000000     -2.471520000000000     -1.401950000000000
C      -1.337340000000000     -2.549420000000000     -1.388460000000000
O      -0.187780000000000     -2.305730000000000     -0.602900000000000
C       2.187110000000000     -2.641410000000000     -0.508750000000000
C      -2.589110000000000     -2.284530000000000     -0.562480000000000
H       0.907970000000000     -3.383570000000000     -2.036740000000000
H       1.118790000000000     -1.582160000000000     -2.048020000000000
H      -1.361200000000000     -1.890500000000000     -2.281670000000000
H      -1.366670000000000     -3.609510000000000     -1.717940000000000
H      -2.624370000000000     -1.226420000000000     -0.233260000000000
H      -3.492210000000000     -2.494670000000000     -1.173770000000000
H      -2.599260000000000     -2.942160000000000      0.331460000000000
H       2.061100000000000     -3.524120000000000      0.150200000000000
H       3.096560000000000     -2.767650000000000     -1.132060000000000
H       2.331690000000000     -1.757400000000000      0.128050000000000
H      -2.280480000000000     -1.425490000000000      2.359490000000000
C      -2.432650000000000      0.741990000000000      2.733780000000000
C      -1.636190000000000     -0.540930000000000      2.528140000000000
C      -3.343000000000000      1.045710000000000      1.535670000000000
H      -3.042140000000000      0.617260000000000      3.651320000000000
H      -1.726780000000000      1.590670000000000      2.876590000000000
H      -2.732380000000000      1.233390000000000      0.624650000000000
H      -4.011350000000000      0.179770000000000      1.342570000000000
C      -4.210750000000000      2.271150000000000      1.813240000000000
H      -0.920870000000000     -0.713210000000000      3.357990000000000
H      -4.842690000000000      2.091300000000000      2.709310000000000
H      -3.577230000000000      3.165670000000000      1.989380000000000
H      -4.877030000000000      2.468840000000000      0.946930000000000
C      -1.506340000000000      0.664890000000000     -2.242880000000000
C      -0.906790000000000      0.974020000000000     -3.450990000000000
C       0.434640000000000      1.205960000000000     -3.183710000000000
C       0.599800000000000      1.014160000000000     -1.831740000000000
N      -0.574890000000000      0.678780000000000     -1.281080000000000
C       1.866630000000000      1.168400000000000     -1.009250000000000
N       1.700610000000000      0.570420000000000      0.335950000000000
C       2.637440000000000      0.944830000000000      1.414240000000000
H      -1.392770000000000      1.025370000000000     -4.414220000000000
H      -2.553370000000000      0.428820000000000     -2.086920000000000
H       1.205170000000000      1.472890000000000     -3.893490000000000
H       2.702890000000000      0.650280000000000     -1.520300000000000
H       2.075460000000000      2.254270000000000     -0.948730000000000
C       2.384920000000000      2.386490000000000      1.890040000000000
C       2.416930000000000     -0.005680000000000      2.609140000000000
C       4.091990000000000      0.786910000000000      0.928340000000000
H       1.352990000000000      2.489500000000000      2.289660000000000
H       3.100810000000000      2.652620000000000      2.698550000000000
H       2.521690000000000      3.117360000000000      1.069470000000000
H       2.598280000000000     -1.063250000000000      2.324520000000000
H       3.108990000000000      0.243020000000000      3.444120000000000
H       1.377370000000000      0.075730000000000      2.989430000000000
H       4.266440000000000     -0.252110000000000      0.572700000000000
H       4.308460000000000      1.483710000000000      0.092380000000000
H       4.809760000000000      1.002640000000000      1.747550000000000
Na      0.940710000000000     11.196479999999999     -4.035500000000000
C       1.697280000000000      9.299090000000000     -1.582490000000000
C       3.591590000000000     10.630520000000001     -1.959940000000000
O       2.490310000000000      9.963730000000000     -2.546960000000000
C       0.609070000000000     10.222700000000000     -1.044040000000000
C       4.814370000000000      9.719220000000000     -1.888510000000000
H       1.206580000000000      8.436820000000001     -2.081610000000000
H       2.300920000000000      8.871210000000000     -0.750700000000000
H       3.840410000000000     11.502000000000001     -2.602460000000000
H       3.356040000000000     11.044560000000001     -0.954450000000000
H       5.103850000000000      9.376220000000000     -2.903470000000000
H       5.666060000000000     10.280090000000000     -1.449980000000000
H       4.607310000000000      8.834130000000000     -1.252460000000000
H      -0.033160000000000     10.583869999999999     -1.874430000000000
H      -0.021970000000000      9.668189999999999     -0.318760000000000
H       1.057840000000000     11.095820000000000     -0.528100000000000
C       1.307420000000000     14.011469999999999     -2.237080000000000
C       0.096460000000000     14.416200000000000     -4.250330000000000
O       0.884710000000000     13.513900000000000     -3.494080000000000
C       0.158000000000000     14.312530000000001     -1.274650000000000
C       0.840030000000000     15.690750000000000     -4.649730000000000
H       1.913260000000000     13.207220000000000     -1.769490000000000
H       1.995140000000000     14.874960000000000     -2.345690000000000
H      -0.166180000000000     13.889450000000000     -5.192800000000000
H      -0.872020000000000     14.636860000000000     -3.755640000000000
H       1.791630000000000     15.431929999999999     -5.159980000000000
H       0.207030000000000     16.281730000000000     -5.344220000000000
H       1.049630000000000     16.323380000000000     -3.763770000000000
H      -0.493600000000000     13.420080000000000     -1.165770000000000
H       0.575670000000000     14.577389999999999     -0.280610000000000
H      -0.442630000000000     15.175020000000000     -1.627400000000000
Na      3.382170000000000      8.660530000000000     -4.344650000000000
C       1.059340000000000      9.535230000000000     -6.558480000000000
C       2.939710000000000     10.926320000000000     -6.654300000000000
O       2.133560000000000     10.101960000000000     -5.837040000000000
C       0.466400000000000      8.396390000000000     -5.737780000000000
C       2.316500000000000     12.304620000000000     -6.866150000000000
H       0.263390000000000     10.293900000000001     -6.717330000000000
H       1.386960000000000      9.106190000000000     -7.532060000000000
H       3.905160000000000     11.070190000000000     -6.123340000000000
H       3.192550000000000     10.441890000000001     -7.623270000000000
H       2.128950000000000     12.793070000000000     -5.887820000000000
H       3.014170000000000     12.938459999999999     -7.452680000000000
H       1.362730000000000     12.225420000000000     -7.426470000000000
H       0.123730000000000      8.771060000000000     -4.749430000000000
H      -0.399550000000000      7.955590000000000     -6.274230000000000
H       1.226930000000000      7.603880000000000     -5.577610000000000
C       4.246250000000000      6.068610000000000     -6.219710000000000
C       3.415860000000000      5.308650000000000     -4.195610000000000
O       3.621600000000000      6.435030000000000     -5.013280000000000
C       4.465900000000000      7.331120000000000     -7.042910000000000
C       2.712580000000000      5.768120000000000     -2.925300000000000
H       5.240220000000000      5.604500000000000     -6.029140000000000
H       3.595290000000000      5.382760000000000     -6.806860000000000
H       2.760350000000000      4.564940000000000     -4.702180000000000
H       4.387080000000000      4.847670000000000     -3.906330000000000
H       1.737290000000000      6.234540000000000     -3.181870000000000
H       2.532900000000000      4.903970000000000     -2.252340000000000
H       3.338480000000000      6.517130000000000     -2.393120000000000
H       5.113510000000000      8.042610000000000     -6.486310000000000
H       4.951120000000000      7.080510000000000     -8.008860000000000
H       3.491850000000000      7.821530000000000     -7.248100000000000
Mg     -5.722880000000000      8.340769999999999     -1.889430000000000
H      -5.785140000000000      8.927849999999999      1.125970000000000
C      -5.684230000000000      6.734980000000000      1.138300000000000
C      -6.230260000000000      8.054110000000000      0.608120000000000
C      -4.181180000000000      6.545110000000000      0.876350000000000
H      -5.895750000000000      6.673520000000000      2.226110000000000
H      -6.222830000000000      5.907590000000000      0.627310000000000
H      -3.886240000000000      5.562610000000000      1.303180000000000
H      -3.983620000000000      6.518930000000000     -0.216210000000000
C      -3.306920000000000      7.627000000000000      1.508590000000000
H      -7.334750000000000      8.093180000000000      0.701210000000000
H      -3.500780000000000      8.613210000000000      1.037980000000000
H      -3.496810000000000      7.690860000000000      2.600370000000000
H      -2.237040000000000      7.377960000000000      1.344290000000000
C      -4.054370000000000      5.942670000000000     -3.136090000000000
C      -3.303290000000000      5.849590000000000     -4.296310000000000
C      -3.361910000000000      7.088880000000000     -4.915850000000000
C      -4.127900000000000      7.889750000000000     -4.098170000000000
N      -4.550590000000000      7.186230000000000     -3.038490000000000
C      -4.497150000000000      9.347020000000001     -4.304570000000000
N      -5.120080000000000      9.882410000000000     -3.075060000000000
C      -5.565520000000000     11.285259999999999     -2.998840000000000
H      -2.776240000000000      4.975980000000000     -4.654770000000000
H      -4.227810000000000      5.151240000000000     -2.417990000000000
H      -2.892280000000000      7.375590000000000     -5.846510000000000
H      -5.195370000000000      9.401230000000000     -5.165220000000000
H      -3.573120000000000      9.914700000000000     -4.523520000000000
C      -6.578240000000000     11.606529999999999     -4.112850000000000
C      -6.239590000000000     11.511520000000001     -1.632960000000000
C      -4.344970000000000     12.220890000000001     -3.102300000000000
H      -7.459510000000000     10.933790000000000     -4.041130000000000
H      -6.928160000000000     12.658170000000000     -4.027100000000000
H      -6.119640000000000     11.489179999999999     -5.116030000000000
H      -5.537150000000000     11.281350000000000     -0.802960000000000
H      -6.565380000000000     12.570570000000000     -1.527770000000000
H      -7.133970000000000     10.861580000000000     -1.522250000000000
H      -3.616810000000000     11.991730000000000     -2.293220000000000
H      -3.829880000000000     12.106590000000001     -4.077570000000000
H      -4.652770000000000     13.283910000000001     -3.007290000000000

-C 0
6-31g(d,p)
****
-H 0
6-31g(d,p)
****
-Mg 0
6-31g(d,p)
****
-N 0
6-31+g(d,p)
****
-Na 0
6-31g(d,p)
****
-O 0
6-31+g(d,p)
****


