%chk=lowest10_c1_a2_speciation0_speciationDFT37b_speciationDFT37b_rank01_E145.63.chk
%nprocshared=20
%mem=40GB
#p opt=loose PM7/gen scf=xqc 

lowest10_c1_a2_speciation0_speciationDFT37b_speciationDFT37b_rank01_E145.63 DFT input

0 1
Mg     -0.105950000000000      0.354940000000000     -0.335560000000000
C      -3.117110000000000     -0.504760000000000      0.256690000000000
C      -2.865950000000000      1.865990000000000      0.323970000000000
O      -2.327720000000000      0.601790000000000      0.647130000000000
C      -3.381660000000000     -0.587790000000000     -1.246280000000000
C      -4.065520000000000      2.207060000000000      1.192440000000000
H      -2.527180000000000     -1.401200000000000      0.519530000000000
H      -4.044480000000000     -0.585940000000000      0.857470000000000
H      -2.068250000000000      2.609350000000000      0.542490000000000
H      -3.084150000000000      1.982150000000000     -0.757580000000000
H      -3.804900000000000      2.053680000000000      2.260860000000000
H      -4.347830000000000      3.268060000000000      1.032480000000000
H      -4.926470000000000      1.564060000000000      0.920600000000000
H      -2.447350000000000     -0.414920000000000     -1.816400000000000
H      -3.769010000000000     -1.598270000000000     -1.493910000000000
H      -4.142570000000000      0.158320000000000     -1.548700000000000
H       0.120480000000000      0.770530000000000     -2.886410000000000
C       0.844740000000000      2.584220000000000     -1.915390000000000
C      -0.167090000000000      1.468290000000000     -2.074980000000000
C       2.211780000000000      2.020560000000000     -1.510750000000000
H       0.907070000000000      3.118450000000000     -2.883870000000000
H       0.500020000000000      3.287270000000000     -1.124240000000000
H       2.148190000000000      1.586250000000000     -0.491280000000000
H       2.523490000000000      1.217150000000000     -2.210890000000000
C       3.273790000000000      3.112760000000000     -1.530520000000000
H      -1.185300000000000      1.867070000000000     -2.255080000000000
H       3.373300000000000      3.510080000000000     -2.563340000000000
H       3.000390000000000      3.941300000000000     -0.843650000000000
H       4.252320000000000      2.691740000000000     -1.217770000000000
C       2.755440000000000      0.863950000000000      2.103890000000000
C       1.554890000000000      1.532890000000000      2.243540000000000
C       0.559090000000000      0.579540000000000      2.159490000000000
C       1.168980000000000     -0.584940000000000      1.952660000000000
N       2.559010000000000     -0.395540000000000      1.942490000000000
C       0.511690000000000     -1.926900000000000      1.740030000000000
N      -0.164900000000000     -1.995540000000000      0.432460000000000
C       0.511180000000000     -2.727080000000000     -0.667570000000000
H       1.420540000000000      2.602390000000000      2.359850000000000
H       3.736530000000000      1.310400000000000      2.111680000000000
H      -0.501180000000000      0.758160000000000      2.226730000000000
H      -0.240760000000000     -2.084680000000000      2.541860000000000
H       1.273360000000000     -2.715820000000000      1.845430000000000
C       0.666600000000000     -4.218900000000000     -0.314770000000000
C      -0.387330000000000     -2.626540000000000     -1.917360000000000
C       1.884300000000000     -2.112000000000000     -1.012810000000000
H      -0.315840000000000     -4.644590000000000     -0.019400000000000
H       1.049010000000000     -4.786020000000000     -1.190810000000000
H       1.389170000000000     -4.380390000000000      0.507570000000000
H      -0.492140000000000     -1.571090000000000     -2.242070000000000
H       0.041670000000000     -3.196410000000000     -2.771230000000000
H      -1.402340000000000     -3.026350000000000     -1.705670000000000
H       1.771990000000000     -1.070550000000000     -1.382060000000000
H       2.555020000000000     -2.102960000000000     -0.132380000000000
H       2.385670000000000     -2.704110000000000     -1.809850000000000
Na      6.816000000000000     -6.089400000000000     10.252840000000001
C       6.905020000000000     -3.312380000000000      8.508150000000001
C       4.832930000000000     -4.303730000000000      8.338839999999999
O       6.223800000000000     -4.518350000000000      8.234950000000000
C       8.403420000000001     -3.547350000000000      8.378430000000000
C       4.101970000000000     -5.607880000000000      8.054850000000000
H       6.620360000000000     -2.520860000000000      7.777440000000000
H       6.702720000000000     -2.972060000000000      9.549280000000000
H       4.557790000000000     -3.976200000000000      9.367559999999999
H       4.494900000000000     -3.559140000000000      7.585120000000000
H       4.405770000000000     -6.384810000000000      8.788119999999999
H       3.005610000000000     -5.447750000000000      8.134219999999999
H       4.339200000000000     -5.963120000000000      7.029480000000000
H       8.650810000000000     -3.879130000000000      7.347580000000000
H       8.951610000000001     -2.605730000000000      8.593629999999999
H       8.732080000000000     -4.326550000000000      9.098730000000000
Na      6.594800000000000     -4.874980000000000      5.650100000000000
Mg      2.611560000000000      0.884800000000000      8.409400000000000
C       4.508690000000000      1.860510000000000     10.820720000000000
C       2.563960000000000      0.750570000000000     11.636110000000000
O       3.112160000000000      1.659660000000000     10.703220000000000
C       5.343670000000000      0.594520000000000     10.622180000000000
C       2.523990000000000      1.328060000000000     13.043780000000000
H       4.787200000000000      2.551170000000000     10.001239999999999
H       4.772380000000000      2.394690000000000     11.755280000000001
H       1.514180000000000      0.566970000000000     11.319820000000000
H       3.051660000000000     -0.244810000000000     11.606230000000000
H       2.010480000000000      2.312450000000000     13.028890000000001
H       1.967210000000000      0.636120000000000     13.709009999999999
H       3.550970000000000      1.448080000000000     13.442930000000000
H       5.019990000000000      0.056630000000000      9.709790000000000
H       6.412390000000000      0.874640000000000     10.514840000000000
H       5.255130000000000     -0.079350000000000     11.496790000000001
H       3.263150000000000     -1.559470000000000      7.728480000000000
C       1.127330000000000     -1.610810000000000      8.135280000000000
C       2.542590000000000     -1.200760000000000      8.489220000000000
C       0.703510000000000     -0.970770000000000      6.808580000000000
H       1.098440000000000     -2.717620000000000      8.068970000000000
H       0.434280000000000     -1.270630000000000      8.936740000000000
H       0.654430000000000      0.132840000000000      6.927450000000000
H       1.443110000000000     -1.204170000000000      6.013270000000000
C      -0.657970000000000     -1.490330000000000      6.365970000000000
H       2.830380000000000     -1.574050000000000      9.493209999999999
H      -0.598900000000000     -2.587180000000000      6.199480000000000
H      -1.428760000000000     -1.276890000000000      7.136560000000000
H      -0.952940000000000     -1.001800000000000      5.413530000000000
C      -0.292180000000000      2.806130000000000      6.739540000000000
C      -0.241900000000000      2.590990000000000      8.106100000000000
C       1.017930000000000      2.981140000000000      8.516870000000001
C       1.664640000000000      3.383350000000000      7.428230000000000
N       0.814270000000000      3.282870000000000      6.311720000000000
C       3.083360000000000      3.882090000000000      7.353850000000000
N       4.050780000000000      2.801050000000000      7.617010000000000
C       4.738180000000000      2.200960000000000      6.446430000000000
H      -1.028940000000000      2.183060000000000      8.727309999999999
H      -1.136940000000000      2.601390000000000      6.097510000000000
H       1.399380000000000      2.955030000000000      9.525900000000000
H       3.218100000000000      4.679320000000000      8.115560000000000
H       3.243390000000000      4.344320000000000      6.365880000000000
C       5.638500000000000      3.241280000000000      5.748680000000000
C       5.644490000000000      1.064670000000000      6.960160000000000
C       3.737240000000000      1.592000000000000      5.442310000000000
H       6.341110000000000      3.690270000000000      6.482890000000000
H       6.231670000000000      2.761130000000000      4.940890000000000
H       5.056300000000000      4.054120000000000      5.274620000000000
H       5.040910000000000      0.264560000000000      7.434350000000000
H       6.215190000000000      0.599930000000000      6.125530000000000
H       6.372270000000000      1.447400000000000      7.707710000000000
H       3.137330000000000      0.788710000000000      5.919960000000000
H       3.045250000000000      2.357600000000000      5.040620000000000
H       4.281630000000000      1.144680000000000      4.583090000000000

-C 0
6-31g(d,p)
****
-H 0
6-31g(d,p)
****
-Mg 0
6-31g(d,p)
****
-N 0
6-31+g(d,p)
****
-Na 0
6-31g(d,p)
****
-O 0
6-31+g(d,p)
****


