%chk=lowest10_c1_a2_speciation7_speciationDFT36_speciationDFT96_rank05_E228.48.chk
%nprocshared=20
%mem=40GB
#p opt=loose PM7/gen scf=xqc 

lowest10_c1_a2_speciation7_speciationDFT36_speciationDFT96_rank05_E228.48 DFT input

0 1
Mg     -0.355350000000000     -0.254720000000000      0.003090000000000
C       1.645770000000000     -1.332140000000000     -2.647940000000000
C       1.073970000000000      0.983320000000000     -2.744950000000000
O       1.161360000000000     -0.192410000000000     -1.962440000000000
C       3.099950000000000     -1.207420000000000     -3.090580000000000
C       0.078750000000000      0.878840000000000     -3.897510000000000
H       1.592590000000000     -2.175130000000000     -1.925410000000000
H       0.994700000000000     -1.621780000000000     -3.494490000000000
H       0.689550000000000      1.777200000000000     -2.074270000000000
H       2.070920000000000      1.339430000000000     -3.074520000000000
H      -0.903950000000000      0.523340000000000     -3.524340000000000
H      -0.053600000000000      1.881540000000000     -4.354700000000000
H       0.453750000000000      0.191170000000000     -4.680650000000000
H       3.747120000000000     -0.936030000000000     -2.232490000000000
H       3.436840000000000     -2.183780000000000     -3.497890000000000
H       3.200430000000000     -0.446520000000000     -3.889280000000000
H      -0.836280000000000     -3.083150000000000     -0.721060000000000
C      -2.032590000000000     -2.123630000000000     -2.293310000000000
C      -1.535090000000000     -2.234100000000000     -0.868740000000000
C      -2.833300000000000     -3.365270000000000     -2.644230000000000
H      -2.667920000000000     -1.219900000000000     -2.395760000000000
H      -1.167190000000000     -2.021510000000000     -2.976420000000000
H      -2.184100000000000     -4.260920000000000     -2.532040000000000
H      -3.695020000000000     -3.450520000000000     -1.946910000000000
C      -3.345680000000000     -3.290060000000000     -4.073380000000000
H      -2.365970000000000     -2.241370000000000     -0.133290000000000
H      -4.004210000000000     -2.403950000000000     -4.197790000000000
H      -2.493230000000000     -3.216130000000000     -4.782130000000000
H      -3.925740000000000     -4.207850000000000     -4.297530000000000
C       1.603630000000000      1.144390000000000      4.229780000000000
C       0.397420000000000      1.704440000000000      4.588510000000000
C      -0.155630000000000      2.241460000000000      3.436130000000000
C       0.695260000000000      1.976110000000000      2.447790000000000
N       1.805360000000000      1.297010000000000      2.973040000000000
C       0.608500000000000      2.367440000000000      0.984710000000000
N      -0.464460000000000      1.735700000000000      0.194670000000000
C      -1.871620000000000      2.159650000000000      0.198260000000000
H      -0.020450000000000      1.727700000000000      5.586840000000000
H       2.303920000000000      0.643240000000000      4.881980000000000
H      -1.085920000000000      2.778500000000000      3.382650000000000
H       1.558590000000000      2.027240000000000      0.518670000000000
H       0.590900000000000      3.465570000000000      0.875390000000000
C      -1.997350000000000      3.657200000000000      0.487510000000000
C      -2.435940000000000      1.884310000000000     -1.210040000000000
C      -2.687900000000000      1.310530000000000      1.194390000000000
H      -1.398070000000000      4.225630000000000     -0.257140000000000
H      -3.055510000000000      3.978720000000000      0.419750000000000
H      -1.623860000000000      3.894450000000000      1.500350000000000
H      -2.344880000000000      0.808500000000000     -1.461410000000000
H      -3.511150000000000      2.158540000000000     -1.272910000000000
H      -1.878590000000000      2.456670000000000     -1.981670000000000
H      -2.672220000000000      0.234970000000000      0.908850000000000
H      -2.299260000000000      1.375650000000000      2.219910000000000
H      -3.747940000000000      1.642500000000000      1.206250000000000
C       1.249890000000000     -1.831730000000000      2.218910000000000
C       2.810100000000000     -0.822580000000000      0.765180000000000
O       1.502660000000000     -1.337440000000000      0.918450000000000
C      -0.194020000000000     -1.525170000000000      2.623120000000000
C       3.822830000000000     -1.939870000000000      0.616090000000000
H       1.384490000000000     -2.931850000000000      2.207470000000000
H       1.915780000000000     -1.393690000000000      2.993190000000000
H       2.828120000000000     -0.199080000000000     -0.150620000000000
H       3.108570000000000     -0.136950000000000      1.576790000000000
H       3.536560000000000     -2.595700000000000     -0.231670000000000
H       4.823390000000000     -1.500440000000000      0.425090000000000
H       3.858150000000000     -2.533100000000000      1.552000000000000
H      -0.378630000000000     -0.436410000000000      2.656360000000000
H      -0.912700000000000     -1.968060000000000      1.904990000000000
H      -0.398360000000000     -1.940100000000000      3.631420000000000
Na     -0.572510000000000      7.904660000000000      7.576290000000000
C      -1.875060000000000      5.208860000000000      6.464070000000000
C      -2.018440000000000      6.756380000000000      4.707480000000000
O      -2.052350000000000      6.566360000000000      6.108960000000000
C      -0.395840000000000      4.883830000000000      6.643650000000000
C      -3.413680000000000      6.632880000000000      4.100710000000000
H      -2.388540000000000      5.042110000000000      7.434690000000000
H      -2.349210000000000      4.509050000000000      5.739590000000000
H      -1.641650000000000      7.783730000000000      4.515330000000000
H      -1.310330000000000      6.065800000000000      4.197810000000000
H      -4.099480000000000      7.382870000000000      4.546990000000000
H      -3.356330000000000      6.813880000000000      3.007080000000000
H      -3.826880000000000      5.617530000000000      4.271240000000000
H       0.048920000000000      5.538780000000000      7.421810000000000
H      -0.285900000000000      3.827090000000000      6.962120000000000
H       0.154610000000000      5.026690000000000      5.691500000000000
C       1.861510000000000      7.926640000000000      5.263510000000000
C       2.373460000000000      9.388270000000000      7.077450000000000
O       1.404980000000000      8.576040000000001      6.436890000000000
C       2.995340000000000      6.930900000000000      5.510300000000000
C       2.841730000000000     10.568190000000000      6.226080000000000
H       1.001970000000000      7.341100000000000      4.874830000000000
H       2.112590000000000      8.651450000000001      4.462310000000000
H       1.879210000000000      9.817449999999999      7.975610000000000
H       3.224800000000000      8.791490000000000      7.465040000000000
H       1.966710000000000     11.153400000000000      5.872980000000000
H       3.493080000000000     11.226179999999999      6.838760000000000
H       3.435330000000000     10.220100000000000      5.356740000000000
H       2.701020000000000      6.202550000000000      6.294950000000000
H       3.207680000000000      6.380290000000000      4.569740000000000
H       3.925850000000000      7.452590000000000      5.812120000000000
Na     -4.025750000000000      7.670010000000000      6.888660000000000
C      -2.558640000000000      9.182240000000000      9.457420000000001
C      -2.577340000000000     10.528219999999999      7.543960000000000
O      -2.560730000000000      9.207150000000000      8.045529999999999
C      -2.904390000000000      7.773780000000000      9.923790000000000
C      -1.195330000000000     11.178070000000000      7.593350000000000
H      -1.545890000000000      9.427320000000000      9.837619999999999
H      -3.317430000000000      9.871499999999999      9.891819999999999
H      -2.884800000000000     10.468760000000000      6.477900000000000
H      -3.341210000000000     11.160250000000000      8.048340000000000
H      -0.463250000000000     10.561059999999999      7.032880000000000
H      -1.245080000000000     12.183560000000000      7.125350000000000
H      -0.850020000000000     11.298249999999999      8.640520000000000
H      -2.173850000000000      7.043260000000000      9.514939999999999
H      -2.877140000000000      7.725640000000000     11.032819999999999
H      -3.922190000000000      7.495270000000000      9.579599999999999
C      -7.009420000000000      8.205830000000001      8.227720000000000
C      -6.622380000000000      5.926540000000000      8.092840000000001
O      -6.065520000000000      7.207430000000000      7.924910000000000
C      -6.354620000000000      9.561680000000001      7.998950000000000
C      -5.544040000000000      4.897610000000000      7.780010000000000
H      -7.895360000000000      8.133350000000000      7.557230000000000
H      -7.315750000000000      8.146229999999999      9.296150000000001
H      -6.951240000000000      5.771800000000000      9.145130000000000
H      -7.468300000000000      5.767560000000000      7.386740000000000
H      -4.683690000000000      5.031090000000000      8.470280000000001
H      -5.947090000000000      3.870820000000000      7.901460000000000
H      -5.187600000000000      5.024600000000000      6.734710000000000
H      -6.033740000000000      9.657019999999999      6.939060000000000
H      -7.068080000000000     10.377850000000000      8.235630000000000
H      -5.463150000000000      9.664550000000000      8.651759999999999
Mg      2.154480000000000     14.812230000000000     11.908860000000001
C       3.213230000000000     12.373400000000000     14.717919999999999
C       1.105050000000000     13.156760000000000     15.227539999999999
O       2.378550000000000     13.514460000000000     14.731570000000000
C       4.665900000000000     12.810470000000000     14.610749999999999
C       0.169730000000000     14.354080000000000     15.135949999999999
H       3.126440000000000     11.781160000000000     15.656969999999999
H       2.967360000000000     11.729799999999999     13.846740000000000
H       0.662710000000000     12.324590000000001     14.637210000000000
H       1.173740000000000     12.861190000000001     16.297049999999999
H       0.060080000000000     14.679970000000001     14.081849999999999
H      -0.831690000000000     14.078730000000000     15.529400000000001
H       0.572520000000000     15.196980000000000     15.735569999999999
H       4.937420000000000     13.451090000000001     15.474830000000001
H       5.327600000000000     11.919770000000000     14.588390000000000
H       4.830110000000000     13.385690000000000     13.686109999999999
H       1.204640000000000     17.105879999999999     14.093170000000001
C       0.792770000000000     17.498010000000001     11.977259999999999
C       1.702430000000000     17.028169999999999     13.105770000000000
C      -0.492930000000000     16.664239999999999     11.910589999999999
H       0.544570000000000     18.564520000000002     12.157010000000000
H       1.336340000000000     17.410060000000001     11.010410000000000
H      -0.250420000000000     15.604920000000000     11.674700000000000
H      -1.014820000000000     16.699349999999999     12.890790000000001
C      -1.437790000000000     17.206440000000001     10.841830000000000
H       2.653780000000000     17.598710000000001     13.107860000000001
H      -1.709890000000000     18.258040000000001     11.075749999999999
H      -0.959030000000000     17.167580000000001      9.840350000000001
H      -2.366840000000000     16.598579999999998     10.818450000000000
C       0.042710000000000     12.456149999999999     12.071600000000000
C       0.136190000000000     11.121290000000000     11.723409999999999
C       1.415730000000000     10.922010000000000     11.224840000000000
C       2.055610000000000     12.140029999999999     11.314769999999999
N       1.218380000000000     13.052540000000000     11.819540000000000
C       3.479640000000000     12.486050000000001     10.909409999999999
N       3.867630000000000     13.810969999999999     11.452990000000000
C       5.013530000000000     14.528720000000000     10.861780000000000
H      -0.642840000000000     10.378810000000000     11.822110000000000
H      -0.823550000000000     12.951940000000000     12.490810000000000
H       1.832490000000000      9.995320000000000     10.856470000000000
H       4.170040000000000     11.727660000000000     11.331630000000001
H       3.526890000000000     12.458660000000000      9.802840000000000
C       4.649910000000000     15.085240000000001      9.475170000000000
C       5.373230000000000     15.712999999999999     11.782489999999999
C       6.239420000000000     13.597670000000001     10.766830000000001
H       3.789330000000000     15.784240000000000      9.554010000000000
H       5.513000000000000     15.639870000000000      9.046030000000000
H       4.383580000000000     14.274490000000000      8.769060000000000
H       5.650680000000000     15.364089999999999     12.799260000000000
H       6.237550000000000     16.281970000000001     11.374060000000000
H       4.515550000000000     16.411259999999999     11.880300000000000
H       6.494180000000000     13.194220000000000     11.771280000000001
H       6.040720000000000     12.743729999999999     10.086710000000000
H       7.122600000000000     14.146400000000000     10.376060000000001

-C 0
6-31g(d,p)
****
-H 0
6-31g(d,p)
****
-Mg 0
6-31g(d,p)
****
-N 0
6-31+g(d,p)
****
-Na 0
6-31g(d,p)
****
-O 0
6-31+g(d,p)
****


