%chk=lowest10_c1_a2_speciation7_speciationDFT0_speciationDFT38_rank03_E219.95.chk
%nprocshared=20
%mem=40GB
#p opt=loose PM7/gen scf=xqc 

lowest10_c1_a2_speciation7_speciationDFT0_speciationDFT38_rank03_E219.95 DFT input

0 1
Mg      0.077440000000000      0.961930000000000      0.021420000000000
C       1.580160000000000     -1.750170000000000     -1.130200000000000
C       1.754600000000000     -1.667270000000000      1.254550000000000
O       1.465680000000000     -0.981430000000000      0.054730000000000
C       0.857850000000000     -3.099380000000000     -1.107520000000000
C       3.224560000000000     -2.040850000000000      1.372910000000000
H       1.093860000000000     -1.154100000000000     -1.927500000000000
H       2.642390000000000     -1.861340000000000     -1.428390000000000
H       1.522450000000000     -0.970900000000000      2.083050000000000
H       1.081100000000000     -2.531360000000000      1.419010000000000
H       3.410160000000000     -2.463310000000000      2.382180000000000
H       3.858580000000000     -1.140820000000000      1.233620000000000
H       3.490160000000000     -2.800120000000000      0.611520000000000
H      -0.194720000000000     -2.972250000000000     -0.799160000000000
H       1.365750000000000     -3.807110000000000     -0.421820000000000
H       0.865900000000000     -3.537880000000000     -2.125610000000000
H       2.244440000000000      2.504110000000000      0.280030000000000
C       1.042010000000000      3.035010000000000      2.034750000000000
C       1.185330000000000      2.703200000000000      0.540010000000000
C       1.434830000000000      1.900230000000000      3.001650000000000
H       1.658800000000000      3.930800000000000      2.256160000000000
H      -0.022400000000000      3.282430000000000      2.235680000000000
H       1.287250000000000      2.264340000000000      4.043420000000000
H       0.760640000000000      1.032120000000000      2.855950000000000
C       2.889330000000000      1.449860000000000      2.867000000000000
H       0.810570000000000      3.544930000000000     -0.074140000000000
H       3.074600000000000      1.028450000000000      1.860220000000000
H       3.579810000000000      2.300650000000000      3.042150000000000
H       3.105430000000000      0.657440000000000      3.617050000000000
C      -1.616890000000000     -1.838400000000000      2.166160000000000
C      -1.787260000000000     -0.497180000000000      2.457190000000000
C      -2.051630000000000      0.134920000000000      1.257820000000000
C      -2.007030000000000     -0.803230000000000      0.318080000000000
N      -1.748540000000000     -2.051910000000000      0.910990000000000
C      -2.153480000000000     -0.578670000000000     -1.164830000000000
N      -1.090100000000000      0.331080000000000     -1.611240000000000
C      -1.114980000000000      0.847040000000000     -3.001510000000000
H      -1.691410000000000     -0.029380000000000      3.428340000000000
H      -1.387360000000000     -2.616730000000000      2.878850000000000
H      -2.210330000000000      1.194380000000000      1.102470000000000
H      -3.156820000000000     -0.156090000000000     -1.361230000000000
H      -2.050940000000000     -1.555010000000000     -1.683430000000000
C      -2.319750000000000      1.784400000000000     -3.215160000000000
C       0.177760000000000      1.639800000000000     -3.256390000000000
C      -1.183390000000000     -0.315060000000000     -4.020970000000000
H      -2.275880000000000      2.641300000000000     -2.511120000000000
H      -2.325320000000000      2.179910000000000     -4.254920000000000
H      -3.280770000000000      1.251360000000000     -3.068250000000000
H       1.069880000000000      0.988100000000000     -3.145520000000000
H       0.183900000000000      2.059540000000000     -4.287670000000000
H       0.265310000000000      2.481710000000000     -2.538150000000000
H      -0.322020000000000     -1.004420000000000     -3.892090000000000
H      -2.120410000000000     -0.899340000000000     -3.909100000000000
H      -1.159140000000000      0.072550000000000     -5.063400000000000
Na      0.618620000000000     -6.621100000000000      6.837980000000000
C      -0.220850000000000     -6.844020000000000      3.761480000000000
C      -0.831230000000000     -8.901690000000000      4.708870000000000
O       0.095710000000000     -7.832460000000000      4.722870000000000
C      -1.151560000000000     -5.790600000000000      4.353130000000000
C      -0.392210000000000     -9.999110000000000      3.742880000000000
H       0.725030000000000     -6.344730000000000      3.462070000000000
H      -0.651520000000000     -7.272710000000000      2.828590000000000
H      -0.869010000000000     -9.330340000000000      5.733160000000000
H      -1.866710000000000     -8.568650000000000      4.474110000000000
H       0.605020000000000    -10.392970000000000      4.028720000000000
H      -1.123140000000000    -10.833349999999999      3.776880000000000
H      -0.344750000000000     -9.611070000000000      2.704540000000000
H      -0.680390000000000     -5.316660000000000      5.239460000000000
H      -1.353760000000000     -5.008080000000000      3.593600000000000
H      -2.115730000000000     -6.246830000000000      4.656460000000000
C      -2.550330000000000     -7.048060000000000      7.924090000000000
C      -1.141480000000000     -6.189320000000000      9.643929999999999
O      -1.230050000000000     -6.762670000000000      8.351100000000001
C      -3.434800000000000     -5.808290000000000      7.783110000000000
C      -1.634410000000000     -7.113650000000000     10.756970000000001
H      -2.462730000000000     -7.494520000000000      6.911470000000000
H      -3.026810000000000     -7.828930000000000      8.551510000000000
H      -0.061970000000000     -6.006510000000000      9.833489999999999
H      -1.621930000000000     -5.190220000000000      9.689530000000000
H      -1.112800000000000     -8.091180000000000     10.694509999999999
H      -1.416500000000000     -6.650240000000000     11.741840000000000
H      -2.730480000000000     -7.267360000000000     10.692330000000000
H      -2.943530000000000     -5.060560000000000      7.125490000000000
H      -4.405430000000000     -6.102500000000000      7.331600000000000
H      -3.648880000000000     -5.354860000000000      8.771900000000000
Na      2.268320000000000     -8.847770000000001      4.614720000000000
C       3.612910000000000     -6.958860000000000      7.013520000000000
C       2.747210000000000     -8.969490000000000      7.842530000000000
O       2.642890000000000     -7.972310000000000      6.846340000000000
C       3.686650000000000     -6.137490000000000      5.732290000000000
C       2.103260000000000     -8.531779999999999      9.156390000000000
H       3.316440000000000     -6.278490000000000      7.840370000000000
H       4.628570000000000     -7.375320000000000      7.198600000000000
H       2.193330000000000     -9.859830000000001      7.474670000000000
H       3.796940000000000     -9.304220000000001      7.996750000000000
H       1.041530000000000     -8.257709999999999      8.987590000000001
H       2.144180000000000     -9.368969999999999      9.884399999999999
H       2.642020000000000     -7.664930000000000      9.590560000000000
H       2.693420000000000     -5.697210000000000      5.499540000000000
H       4.424080000000000     -5.316020000000000      5.851460000000000
H       4.002280000000000     -6.779810000000000      4.883860000000000
C       5.292880000000000     -9.677730000000000      3.537450000000000
C       4.195660000000000     -8.488770000000001      1.881670000000000
O       4.146780000000000     -8.926420000000000      3.217930000000000
C       5.166230000000000    -10.146739999999999      4.980720000000000
C       2.946790000000000     -7.661430000000000      1.607880000000000
H       5.372650000000000    -10.578900000000001      2.888360000000000
H       6.208940000000000     -9.050450000000000      3.457500000000000
H       5.083450000000000     -7.839500000000000      1.709330000000000
H       4.197620000000000     -9.354770000000000      1.181920000000000
H       2.915840000000000     -6.786810000000000      2.292390000000000
H       2.950530000000000     -7.297940000000000      0.559320000000000
H       2.037150000000000     -8.278660000000000      1.773250000000000
H       4.258780000000000    -10.777490000000000      5.099310000000000
H       6.058650000000000    -10.738619999999999      5.271520000000000
H       5.082100000000000     -9.270070000000000      5.655820000000000
Mg      0.116660000000000    -12.730860000000000      9.223520000000001
H       3.105310000000000    -13.802009999999999      9.181630000000000
C       2.273930000000000    -15.106640000000001     10.731940000000000
C       2.349740000000000    -13.780110000000001      9.993130000000001
C       1.913610000000000    -16.280550000000002      9.811100000000000
H       3.266170000000000    -15.299350000000000     11.190759999999999
H       1.521160000000000    -15.031570000000000     11.545299999999999
H       2.665760000000000    -16.371230000000001      8.997430000000000
H       1.944570000000000    -17.208590000000001     10.420310000000001
C       0.515510000000000    -16.163879999999999      9.200550000000000
H       2.576440000000000    -12.954420000000001     10.701420000000001
H       0.452960000000000    -15.293799999999999      8.516290000000000
H       0.294290000000000    -17.083050000000000      8.616330000000000
H      -0.251780000000000    -16.062249999999999      9.997640000000001
C      -0.509200000000000    -13.310670000000000      6.162690000000000
C      -1.697320000000000    -13.319179999999999      5.450620000000000
C      -2.710310000000000    -13.021990000000001      6.349730000000000
C      -2.099500000000000    -12.866280000000000      7.574650000000000
N      -0.775480000000000    -13.026280000000000      7.447820000000000
C      -2.753780000000000    -12.549289999999999      8.906440000000000
N      -1.768920000000000    -12.722590000000000      9.995380000000001
C      -2.150410000000000    -12.522910000000000     11.404529999999999
H      -1.814220000000000    -13.516240000000000      4.393550000000000
H       0.479820000000000    -13.497150000000000      5.765160000000000
H      -3.767750000000000    -12.943500000000000      6.137920000000000
H      -3.127920000000000    -11.505369999999999      8.865100000000000
H      -3.594650000000000    -13.252079999999999      9.057620000000000
C      -3.190480000000000    -13.583100000000000     11.817420000000000
C      -0.897670000000000    -12.705080000000001     12.279820000000001
C      -2.714330000000000    -11.108870000000000     11.627010000000000
H      -2.779710000000000    -14.604830000000000     11.659929999999999
H      -3.459780000000000    -13.474909999999999     12.889740000000000
H      -4.123800000000000    -13.487069999999999     11.226710000000001
H      -0.120630000000000    -11.955520000000000     12.017620000000001
H      -1.150500000000000    -12.583080000000001     13.356660000000000
H      -0.466540000000000    -13.718970000000001     12.139810000000001
H      -1.964890000000000    -10.345120000000000     11.331460000000000
H      -3.638980000000000    -10.950170000000000     11.034920000000000
H      -2.971540000000000    -10.957649999999999     12.697730000000000

-C 0
6-31g(d,p)
****
-H 0
6-31g(d,p)
****
-Mg 0
6-31g(d,p)
****
-N 0
6-31+g(d,p)
****
-Na 0
6-31g(d,p)
****
-O 0
6-31+g(d,p)
****


