%chk=lowest10_c1_a2_speciation7_speciationDFT2_speciationDFT96_rank08_E229.68.chk
%nprocshared=20
%mem=40GB
#p opt=loose PM7/gen scf=xqc 

lowest10_c1_a2_speciation7_speciationDFT2_speciationDFT96_rank08_E229.68 DFT input

0 1
Mg     -0.212570000000000     -0.401890000000000     -0.009610000000000
C       2.944430000000000     -1.197480000000000      1.265790000000000
C       2.994260000000000     -0.273470000000000     -0.934220000000000
O       2.259320000000000     -0.477630000000000      0.257680000000000
C       4.153940000000000     -0.459220000000000      1.830240000000000
C       3.339450000000000     -1.566000000000000     -1.669130000000000
H       2.221110000000000     -1.329950000000000      2.099280000000000
H       3.217160000000000     -2.219490000000000      0.940830000000000
H       2.335100000000000      0.302910000000000     -1.613280000000000
H       3.880150000000000      0.373220000000000     -0.771870000000000
H       2.426600000000000     -2.180160000000000     -1.813460000000000
H       3.763480000000000     -1.315820000000000     -2.663890000000000
H       4.097940000000000     -2.147250000000000     -1.109040000000000
H       3.867500000000000      0.555860000000000      2.171290000000000
H       4.550680000000000     -1.028790000000000      2.696750000000000
H       4.955660000000000     -0.384900000000000      1.069490000000000
H      -0.267310000000000     -2.718080000000000      1.838940000000000
C       0.439730000000000     -3.746470000000000      0.032340000000000
C      -0.439640000000000     -2.740940000000000      0.743090000000000
C       0.102720000000000     -5.144620000000000      0.520420000000000
H       0.274190000000000     -3.675850000000000     -1.062420000000000
H       1.502310000000000     -3.515120000000000      0.240750000000000
H       0.269340000000000     -5.197230000000000      1.618470000000000
H      -0.966940000000000     -5.356900000000000      0.303940000000000
C       0.973080000000000     -6.181310000000000     -0.171360000000000
H      -1.512430000000000     -2.870200000000000      0.490540000000000
H       0.809760000000000     -6.146730000000000     -1.269750000000000
H       2.045220000000000     -5.987630000000000      0.046510000000000
H       0.702390000000000     -7.188600000000000      0.204410000000000
C      -2.363350000000000      3.900520000000000      0.981070000000000
C      -3.240110000000000      3.642340000000000     -0.043030000000000
C      -2.532700000000000      2.991350000000000     -1.046040000000000
C      -1.266940000000000      2.837320000000000     -0.638890000000000
N      -1.099360000000000      3.416250000000000      0.634010000000000
C      -0.100150000000000      2.222600000000000     -1.383410000000000
N      -0.169290000000000      0.770640000000000     -1.634030000000000
C      -0.926550000000000      0.143050000000000     -2.725030000000000
H      -4.287250000000000      3.910830000000000     -0.046520000000000
H      -2.592560000000000      4.397170000000000      1.914900000000000
H      -2.954270000000000      2.685900000000000     -1.988760000000000
H       0.788240000000000      2.364770000000000     -0.730740000000000
H       0.112110000000000      2.781200000000000     -2.311430000000000
C      -1.039890000000000      1.079240000000000     -3.930460000000000
C      -0.148760000000000     -1.116760000000000     -3.154710000000000
C      -2.310090000000000     -0.318570000000000     -2.222850000000000
H      -0.020520000000000      1.380830000000000     -4.257430000000000
H      -1.552380000000000      0.571400000000000     -4.771210000000000
H      -1.612910000000000      1.987600000000000     -3.668430000000000
H      -0.032580000000000     -1.811460000000000     -2.298680000000000
H      -0.680080000000000     -1.660430000000000     -3.965380000000000
H       0.869260000000000     -0.853040000000000     -3.512250000000000
H      -2.208640000000000     -1.077640000000000     -1.415330000000000
H      -2.905360000000000      0.508720000000000     -1.812090000000000
H      -2.887470000000000     -0.780540000000000     -3.051730000000000
C      -1.280020000000000      0.869270000000000      2.676640000000000
C       0.926140000000000      1.636090000000000      2.336280000000000
O      -0.019370000000000      0.614440000000000      2.088760000000000
C      -2.396320000000000      0.364600000000000      1.759130000000000
C       1.482900000000000      1.539610000000000      3.741150000000000
H      -1.337660000000000      0.315230000000000      3.635000000000000
H      -1.465910000000000      1.947920000000000      2.868660000000000
H       1.755450000000000      1.519080000000000      1.610730000000000
H       0.535570000000000      2.650600000000000      2.155250000000000
H       1.917690000000000      0.532620000000000      3.905180000000000
H       2.268880000000000      2.311710000000000      3.871970000000000
H       0.669340000000000      1.721230000000000      4.472140000000000
H      -2.387380000000000      0.894000000000000      0.789150000000000
H      -2.286470000000000     -0.719360000000000      1.554990000000000
H      -3.382760000000000      0.536790000000000      2.236700000000000
Na     -2.800920000000000      9.162509999999999     -3.483540000000000
C       0.106000000000000      9.752829999999999     -4.661840000000000
C       0.003180000000000      7.427860000000000     -4.363830000000000
O      -0.401310000000000      8.692539999999999     -3.874780000000000
C      -0.854460000000000     10.095290000000000     -5.796520000000000
C       1.321330000000000      6.987380000000000     -3.731970000000000
H       0.204050000000000     10.645040000000000     -4.007760000000000
H       1.126440000000000      9.545640000000001     -5.055650000000000
H      -0.781620000000000      6.691760000000000     -4.087140000000000
H       0.075880000000000      7.400630000000000     -5.473740000000000
H       1.223340000000000      6.928640000000000     -2.628090000000000
H       1.595280000000000      5.982220000000000     -4.115230000000000
H       2.134640000000000      7.697900000000000     -3.986190000000000
H      -1.848250000000000     10.373469999999999     -5.387320000000000
H      -0.453140000000000     10.952959999999999     -6.375450000000000
H      -0.974330000000000      9.231019999999999     -6.481050000000000
C      -3.696140000000000      7.249870000000000     -6.096940000000000
C      -5.593970000000000      7.924910000000000     -4.821840000000000
O      -4.181880000000000      7.848760000000000     -4.908810000000000
C      -4.051310000000000      8.023250000000001     -7.367340000000000
C      -6.278800000000000      6.558620000000000     -4.788960000000000
H      -2.588670000000000      7.253930000000000     -6.019590000000000
H      -3.984010000000000      6.180970000000000     -6.167210000000000
H      -5.822370000000000      8.421490000000000     -3.854390000000000
H      -6.023020000000000      8.587100000000000     -5.602130000000000
H      -5.839550000000000      5.932150000000000     -3.984260000000000
H      -7.361930000000000      6.696600000000000     -4.588780000000000
H      -6.179690000000000      6.040380000000000     -5.764000000000000
H      -3.724030000000000      9.080349999999999     -7.275950000000000
H      -3.533290000000000      7.559070000000000     -8.232740000000000
H      -5.141040000000000      7.983750000000000     -7.567380000000000
Na      0.110750000000000      8.697910000000000     -1.538280000000000
C      -2.800930000000000      9.980079999999999     -0.573660000000000
C      -2.816460000000000      7.638610000000000     -0.550130000000000
O      -2.275280000000000      8.800290000000000     -1.146510000000000
C      -1.927420000000000     11.157510000000000     -0.989930000000000
C      -4.209260000000000      7.317510000000000     -1.088220000000000
H      -3.828380000000000     10.165030000000000     -0.953880000000000
H      -2.799270000000000      9.943560000000000      0.538930000000000
H      -2.148070000000000      6.791230000000000     -0.815350000000000
H      -2.813470000000000      7.694410000000000      0.560840000000000
H      -4.175790000000000      7.205520000000000     -2.191450000000000
H      -4.565860000000000      6.365400000000000     -0.644400000000000
H      -4.930530000000000      8.116339999999999     -0.821010000000000
H      -1.892430000000000     11.239440000000000     -2.097510000000000
H      -2.340440000000000     12.100020000000001     -0.573710000000000
H      -0.894480000000000     11.022000000000000     -0.606860000000000
C       1.466610000000000      9.485860000000001      1.380730000000000
C       2.531900000000000     10.663069999999999     -0.305190000000000
O       1.462580000000000      9.805149999999999      0.010470000000000
C       0.307020000000000      8.535650000000000      1.649380000000000
C       2.451640000000000     10.992130000000000     -1.789990000000000
H       2.409910000000000      8.968050000000000      1.666660000000000
H       1.314290000000000     10.399740000000000      1.997670000000000
H       2.456350000000000     11.617130000000000      0.263550000000000
H       3.508650000000000     10.164529999999999     -0.113110000000000
H       1.485090000000000     11.492310000000000     -2.013910000000000
H       3.282510000000000     11.669020000000000     -2.078070000000000
H       2.520290000000000     10.059630000000000     -2.391280000000000
H       0.424930000000000      7.608560000000000      1.047620000000000
H       0.272270000000000      8.266480000000000      2.725260000000000
H      -0.650670000000000      9.022000000000000      1.370720000000000
Mg     -3.317470000000000     16.280429999999999     -5.985970000000000
H      -2.302250000000000     16.068819999999999     -8.878190000000000
C      -0.716960000000000     17.290240000000001     -7.976230000000000
C      -2.181060000000000     16.930280000000000     -8.190550000000000
C       0.088150000000000     16.187200000000001     -7.269580000000000
H      -0.261320000000000     17.528700000000001     -8.959780000000000
H      -0.674800000000000     18.199760000000001     -7.338460000000000
H       1.135320000000000     16.546669999999999     -7.167500000000000
H      -0.316550000000000     16.011970000000002     -6.250240000000000
C       0.104950000000000     14.859920000000001     -8.026460000000000
H      -2.750310000000000     17.798030000000001     -8.581799999999999
H      -0.911780000000000     14.416630000000000     -8.064270000000000
H       0.486760000000000     15.006140000000000     -9.058420000000000
H       0.767320000000000     14.142680000000000     -7.496850000000000
C      -1.366820000000000     16.325630000000000     -3.481930000000000
C      -1.461850000000000     15.743800000000000     -2.227200000000000
C      -2.654680000000000     15.037900000000000     -2.203310000000000
C      -3.225700000000000     15.200040000000000     -3.444430000000000
N      -2.444620000000000     15.991170000000000     -4.201550000000000
C      -4.533210000000000     14.627900000000000     -3.952740000000000
N      -4.643080000000000     14.845760000000000     -5.410630000000000
C      -5.818630000000000     14.373450000000000     -6.162940000000000
H      -0.747910000000000     15.828250000000001     -1.420810000000000
H      -0.559280000000000     16.956579999999999     -3.835890000000000
H      -3.055030000000000     14.462289999999999     -1.378430000000000
H      -5.358260000000000     15.132280000000000     -3.407610000000000
H      -4.543980000000000     13.541010000000000     -3.743390000000000
C      -7.118700000000000     14.964620000000000     -5.588000000000000
C      -5.674420000000000     14.820600000000001     -7.629310000000000
C      -5.871270000000000     12.833349999999999     -6.124690000000000
H      -7.084060000000000     16.074800000000000     -5.614080000000000
H      -7.994960000000000     14.624000000000001     -6.181140000000000
H      -7.278040000000000     14.636469999999999     -4.540450000000000
H      -4.739910000000000     14.416620000000000     -8.075229999999999
H      -6.533580000000000     14.456680000000000     -8.236020000000000
H      -5.643910000000000     15.928940000000001     -7.702260000000000
H      -4.933930000000000     12.407480000000000     -6.545900000000000
H      -5.989130000000000     12.458819999999999     -5.087700000000000
H      -6.728610000000000     12.452310000000001     -6.719190000000000

-C 0
6-31g(d,p)
****
-H 0
6-31g(d,p)
****
-Mg 0
6-31g(d,p)
****
-N 0
6-31+g(d,p)
****
-Na 0
6-31g(d,p)
****
-O 0
6-31+g(d,p)
****


