%chk=lowest10_c1_a2_speciation7_speciationDFT0_speciationDFT36_rank08_E221.54.chk
%nprocshared=20
%mem=40GB
#p opt=loose PM7/gen scf=xqc 

lowest10_c1_a2_speciation7_speciationDFT0_speciationDFT36_rank08_E221.54 DFT input

0 1
Mg     -0.495910000000000      0.657140000000000      0.018750000000000
C       1.669860000000000     -2.047610000000000     -1.434520000000000
C       2.845910000000000     -0.065020000000000     -1.508980000000000
O       1.576420000000000     -0.659570000000000     -1.690510000000000
C       0.463740000000000     -2.759550000000000     -2.028160000000000
C       2.737560000000000      1.442980000000000     -1.692510000000000
H       2.570680000000000     -2.498820000000000     -1.907000000000000
H       1.693810000000000     -2.236040000000000     -0.341310000000000
H       3.242650000000000     -0.266450000000000     -0.491870000000000
H       3.566630000000000     -0.447260000000000     -2.262380000000000
H       2.050120000000000      1.880630000000000     -0.940760000000000
H       3.738560000000000      1.907900000000000     -1.568840000000000
H       2.356920000000000      1.674530000000000     -2.708960000000000
H       0.414730000000000     -2.585740000000000     -3.122080000000000
H       0.531140000000000     -3.848600000000000     -1.825730000000000
H      -0.468970000000000     -2.388030000000000     -1.581100000000000
H       0.019680000000000      2.655700000000000     -2.409640000000000
C      -1.123720000000000      3.491270000000000     -0.719850000000000
C      -0.812030000000000      2.391760000000000     -1.728000000000000
C       0.098580000000000      3.836750000000000      0.141980000000000
H      -1.453030000000000      4.385270000000000     -1.286660000000000
H      -1.951190000000000      3.154040000000000     -0.056230000000000
H       0.395630000000000      2.960450000000000      0.759950000000000
H       0.952310000000000      4.115510000000000     -0.511690000000000
C      -0.205690000000000      5.015090000000000      1.064340000000000
H      -1.717420000000000      2.088580000000000     -2.292190000000000
H      -0.484710000000000      5.905050000000000      0.460330000000000
H      -1.040310000000000      4.767520000000000      1.754130000000000
H       0.693000000000000      5.266740000000000      1.666350000000000
C       2.179420000000000      0.514410000000000      1.700640000000000
C       2.652200000000000     -0.450650000000000      2.572210000000000
C       1.680720000000000     -1.438600000000000      2.639510000000000
C       0.667060000000000     -1.044570000000000      1.797650000000000
N       0.986290000000000      0.127520000000000      1.231920000000000
C      -0.650000000000000     -1.747310000000000      1.520540000000000
N      -1.317500000000000     -1.170560000000000      0.330430000000000
C      -2.756820000000000     -1.421480000000000      0.116010000000000
H       3.595300000000000     -0.433940000000000      3.098480000000000
H       2.688000000000000      1.429910000000000      1.418510000000000
H       1.712250000000000     -2.345750000000000      3.225760000000000
H      -0.460620000000000     -2.822520000000000      1.327830000000000
H      -1.269840000000000     -1.630200000000000      2.430650000000000
C      -3.611500000000000     -0.635780000000000      1.126320000000000
C      -3.131150000000000     -0.950390000000000     -1.304550000000000
C      -3.051460000000000     -2.931330000000000      0.222860000000000
H      -3.439690000000000      0.456710000000000      1.015450000000000
H      -4.691120000000000     -0.838860000000000      0.952600000000000
H      -3.380980000000000     -0.926520000000000      2.169560000000000
H      -2.550400000000000     -1.494790000000000     -2.078260000000000
H      -4.211130000000000     -1.125600000000000     -1.506700000000000
H      -2.931660000000000      0.135010000000000     -1.423990000000000
H      -2.422120000000000     -3.496230000000000     -0.499100000000000
H      -2.834490000000000     -3.306850000000000      1.244300000000000
H      -4.118160000000000     -3.144370000000000      0.000280000000000
Na     -1.240660000000000     -7.415870000000000      3.066180000000000
C       0.744960000000000     -9.681740000000000      2.013780000000000
C      -0.637800000000000    -10.737259999999999      3.588350000000000
O       0.023490000000000     -9.540920000000000      3.222480000000000
C      -0.133090000000000     -9.340370000000000      0.813980000000000
C       0.252520000000000    -11.613799999999999      4.465430000000000
H       1.593700000000000     -8.965780000000001      2.038720000000000
H       1.197600000000000    -10.692230000000000      1.898290000000000
H      -1.541150000000000    -10.459630000000001      4.172560000000000
H      -1.002480000000000    -11.311640000000001      2.708040000000000
H       0.544020000000000    -11.071550000000000      5.388790000000000
H      -0.303840000000000    -12.529320000000000      4.754890000000000
H       1.168910000000000    -11.914440000000001      3.916980000000000
H      -0.517860000000000     -8.302890000000000      0.903040000000000
H       0.464720000000000     -9.421379999999999     -0.117550000000000
H      -0.991070000000000    -10.039669999999999      0.745900000000000
C      -3.981760000000000     -9.025589999999999      1.974970000000000
C      -4.450220000000000     -6.739100000000000      2.461290000000000
O      -3.531110000000000     -7.813520000000000      2.553260000000000
C      -4.219170000000000     -8.938269999999999      0.466850000000000
C      -5.753380000000000     -6.984360000000000      3.221400000000000
H      -3.169400000000000     -9.766690000000001      2.127840000000000
H      -4.861660000000000     -9.436349999999999      2.511250000000000
H      -3.959580000000000     -5.864270000000000      2.939680000000000
H      -4.631910000000000     -6.436320000000000      1.409340000000000
H      -5.530900000000000     -7.260960000000000      4.272920000000000
H      -6.362970000000000     -6.056770000000000      3.213120000000000
H      -6.350990000000000     -7.784970000000000      2.740610000000000
H      -3.310730000000000     -8.552149999999999     -0.041650000000000
H      -4.448180000000000     -9.951409999999999      0.074750000000000
H      -5.084610000000000     -8.285019999999999      0.235820000000000
Na      1.233320000000000     -8.826090000000001      5.158220000000000
C       0.305170000000000     -5.637900000000000      4.959860000000000
C      -1.123440000000000     -6.890720000000000      6.328440000000000
O      -0.249440000000000     -6.911460000000000      5.217950000000000
C       1.489850000000000     -5.804170000000000      4.016030000000000
C      -2.498120000000000     -6.334750000000000      5.962510000000000
H      -0.444270000000000     -4.988850000000000      4.458220000000000
H       0.685040000000000     -5.149290000000000      5.885160000000000
H      -1.261550000000000     -7.943420000000000      6.656710000000000
H      -0.686640000000000     -6.353220000000000      7.198920000000000
H      -2.939410000000000     -6.923970000000000      5.132460000000000
H      -3.169840000000000     -6.402720000000000      6.843880000000000
H      -2.425800000000000     -5.270220000000000      5.659730000000000
H       1.164920000000000     -6.293340000000000      3.072830000000000
H       1.923700000000000     -4.811810000000000      3.773910000000000
H       2.274270000000000     -6.428430000000000      4.492580000000000
C       3.724430000000000     -8.012650000000001      7.186780000000000
C       4.586220000000000     -8.894280000000000      5.226620000000000
O       3.422060000000000     -8.464210000000000      5.889030000000000
C       2.423480000000000     -7.590810000000000      7.856810000000000
C       4.194860000000000     -9.339480000000000      3.823840000000000
H       4.178020000000000     -8.826449999999999      7.796450000000000
H       4.396160000000000     -7.125950000000000      7.147950000000000
H       5.319230000000000     -8.061730000000001      5.131810000000000
H       5.041440000000000     -9.764030000000000      5.751760000000000
H       3.736250000000000     -8.490600000000001      3.272870000000000
H       5.090320000000000     -9.687490000000000      3.268360000000000
H       3.458390000000000    -10.170349999999999      3.879160000000000
H       1.724990000000000     -8.453640000000000      7.912470000000000
H       2.622770000000000     -7.219920000000000      8.883410000000000
H       1.943060000000000     -6.780630000000000      7.270130000000000
Mg     -4.235840000000000     -9.946690000000000      8.318410000000000
H      -2.628750000000000     -8.731960000000001     10.746560000000001
C      -4.524610000000000     -9.169449999999999     11.754949999999999
C      -3.717240000000000     -8.753470000000000     10.536289999999999
C      -4.138070000000000    -10.558140000000000     12.282660000000000
H      -4.347860000000000     -8.418749999999999     12.553190000000001
H      -5.605600000000000     -9.160240000000000     11.499490000000000
H      -3.059710000000000    -10.577600000000000     12.552420000000000
H      -4.731700000000000    -10.743620000000000     13.202600000000000
C      -4.435250000000000    -11.688710000000000     11.295220000000000
H      -4.054360000000000     -7.760460000000000     10.168130000000000
H      -3.800610000000000    -11.602620000000000     10.390250000000000
H      -4.217290000000000    -12.664040000000000     11.781680000000000
H      -5.505710000000000    -11.677820000000001     10.997949999999999
C      -2.199840000000000    -12.304560000000000      7.689760000000000
C      -2.309860000000000    -13.424880000000000      6.882180000000000
C      -3.579110000000000    -13.397970000000001      6.324700000000000
C      -4.195610000000000    -12.275729999999999      6.831630000000000
N      -3.351900000000000    -11.617590000000000      7.638850000000000
C      -5.603910000000000    -11.784039999999999      6.556640000000000
N      -5.942760000000000    -10.695830000000001      7.498080000000000
C      -7.276030000000000    -10.068120000000000      7.484540000000000
H      -1.550390000000000    -14.176140000000000      6.713980000000000
H      -1.333790000000000    -12.013790000000000      8.270370000000000
H      -4.006970000000000    -14.119149999999999      5.641700000000000
H      -5.643710000000000    -11.431820000000000      5.505030000000000
H      -6.302920000000000    -12.628380000000000      6.705210000000000
C      -8.342430000000000    -11.105010000000000      7.889550000000000
C      -7.291430000000000     -8.927460000000000      8.517899999999999
C      -7.597430000000000     -9.488420000000000      6.096060000000000
H      -8.111950000000000    -11.518670000000000      8.896160000000000
H      -9.351250000000000    -10.641220000000001      7.923370000000000
H      -8.385260000000001    -11.945760000000000      7.168190000000000
H      -6.539300000000000     -8.151220000000000      8.260840000000000
H      -8.293170000000000     -8.443790000000000      8.552770000000001
H      -7.061040000000000     -9.315180000000000      9.532750000000000
H      -6.830530000000000     -8.740480000000000      5.804750000000000
H      -7.627630000000000    -10.287550000000000      5.327190000000000
H      -8.591989999999999     -8.992220000000000      6.103280000000000

-C 0
6-31g(d,p)
****
-H 0
6-31g(d,p)
****
-Mg 0
6-31g(d,p)
****
-N 0
6-31+g(d,p)
****
-Na 0
6-31g(d,p)
****
-O 0
6-31+g(d,p)
****


