%chk=lowest10_c1_a2_speciation7_speciationDFT1_speciationDFT38_rank01_E221.94.chk
%nprocshared=20
%mem=40GB
#p opt=loose PM7/gen scf=xqc 

lowest10_c1_a2_speciation7_speciationDFT1_speciationDFT38_rank01_E221.94 DFT input

0 1
Mg      0.076740000000000      0.954760000000000      0.018260000000000
C       1.571160000000000     -1.739250000000000     -1.130370000000000
C       1.747590000000000     -1.653030000000000      1.254910000000000
O       1.464780000000000     -0.968900000000000      0.053750000000000
C       0.851830000000000     -3.089730000000000     -1.102130000000000
C       3.215360000000000     -2.031060000000000      1.373330000000000
H       1.077740000000000     -1.144280000000000     -1.923550000000000
H       2.631270000000000     -1.848260000000000     -1.436210000000000
H       1.516900000000000     -0.953490000000000      2.080860000000000
H       1.070090000000000     -2.513540000000000      1.420830000000000
H       3.400910000000000     -2.448960000000000      2.384270000000000
H       3.852210000000000     -1.134130000000000      1.227380000000000
H       3.475010000000000     -2.794190000000000      0.614020000000000
H      -0.195580000000000     -2.967930000000000     -0.777010000000000
H       1.372230000000000     -3.798070000000000     -0.426710000000000
H       0.843260000000000     -3.523020000000000     -2.122310000000000
H       2.238840000000000      2.486400000000000      0.283810000000000
C       1.040750000000000      3.024090000000000      2.041250000000000
C       1.180850000000000      2.686590000000000      0.546990000000000
C       1.436980000000000      1.895340000000000      3.013770000000000
H       1.659370000000000      3.920210000000000      2.254990000000000
H      -0.022710000000000      3.273260000000000      2.244890000000000
H       1.295570000000000      2.265420000000000      4.054470000000000
H       0.759910000000000      1.028170000000000      2.877740000000000
C       2.890190000000000      1.442710000000000      2.872390000000000
H       0.799100000000000      3.521560000000000     -0.070900000000000
H       3.069240000000000      1.020910000000000      1.864900000000000
H       3.582630000000000      2.292910000000000      3.042150000000000
H       3.110150000000000      0.650330000000000      3.621320000000000
C      -1.612420000000000     -1.837880000000000      2.164510000000000
C      -1.776410000000000     -0.497030000000000      2.454040000000000
C      -2.042030000000000      0.138090000000000      1.255830000000000
C      -2.001830000000000     -0.801680000000000      0.315930000000000
N      -1.748190000000000     -2.049790000000000      0.905970000000000
C      -2.146600000000000     -0.580050000000000     -1.169390000000000
N      -1.085830000000000      0.330030000000000     -1.617360000000000
C      -1.114130000000000      0.844890000000000     -3.008150000000000
H      -1.672750000000000     -0.030080000000000      3.425940000000000
H      -1.383650000000000     -2.619450000000000      2.872480000000000
H      -2.194690000000000      1.198330000000000      1.103050000000000
H      -3.148910000000000     -0.160030000000000     -1.369490000000000
H      -2.039830000000000     -1.558160000000000     -1.684220000000000
C      -2.321200000000000      1.779750000000000     -3.220000000000000
C       0.176710000000000      1.639940000000000     -3.265130000000000
C      -1.182900000000000     -0.318400000000000     -4.026500000000000
H      -2.274030000000000      2.640080000000000     -2.520460000000000
H      -2.333500000000000      2.169710000000000     -4.261780000000000
H      -3.281100000000000      1.246970000000000     -3.065310000000000
H       1.070060000000000      0.989060000000000     -3.159210000000000
H       0.179130000000000      2.064130000000000     -4.294630000000000
H       0.265180000000000      2.478730000000000     -2.543310000000000
H      -0.321090000000000     -1.007280000000000     -3.897800000000000
H      -2.119560000000000     -0.903100000000000     -3.912810000000000
H      -1.159530000000000      0.067900000000000     -5.069530000000000
Na     -7.308700000000000     -3.081850000000000     -4.382670000000000
C      -9.082680000000000     -0.532370000000000     -3.647680000000000
C      -9.985709999999999     -2.310660000000000     -2.412400000000000
O      -9.357600000000000     -1.919560000000000     -3.618500000000000
C      -7.708170000000000     -0.238160000000000     -3.054750000000000
C     -11.505540000000000     -2.225020000000000     -2.528570000000000
H      -9.080170000000001     -0.208480000000000     -4.710070000000000
H      -9.869560000000000      0.072210000000000     -3.143160000000000
H      -9.707830000000000     -3.367910000000000     -2.214550000000000
H      -9.629590000000000     -1.727380000000000     -1.534450000000000
H     -11.869890000000000     -2.876930000000000     -3.349630000000000
H     -11.967040000000001     -2.563690000000000     -1.577300000000000
H     -11.825450000000000     -1.181310000000000     -2.726410000000000
H      -6.922970000000000     -0.787800000000000     -3.614880000000000
H      -7.500820000000000      0.849920000000000     -3.122870000000000
H      -7.669590000000000     -0.539790000000000     -1.988300000000000
C      -6.266880000000000     -3.526630000000000     -1.218030000000000
C      -4.903980000000000     -4.728300000000000     -2.761600000000000
O      -6.090400000000000     -3.984120000000000     -2.547000000000000
C      -5.187300000000000     -2.548330000000000     -0.755520000000000
C      -4.852300000000000     -6.035150000000000     -1.970700000000000
H      -7.228230000000000     -2.971500000000000     -1.203380000000000
H      -6.399170000000000     -4.367060000000000     -0.506360000000000
H      -4.897050000000000     -5.004410000000000     -3.837980000000000
H      -3.993380000000000     -4.112540000000000     -2.608850000000000
H      -5.767610000000000     -6.633140000000000     -2.164610000000000
H      -3.964370000000000     -6.620740000000000     -2.288340000000000
H      -4.755940000000000     -5.838490000000000     -0.883930000000000
H      -5.103730000000000     -1.707920000000000     -1.475440000000000
H      -5.463020000000000     -2.142480000000000      0.239210000000000
H      -4.206700000000000     -3.054730000000000     -0.651280000000000
Na    -10.681929999999999     -2.825060000000000     -5.392200000000000
C      -8.116700000000000     -4.002360000000000     -7.149230000000000
C      -8.993340000000000     -5.606280000000000     -5.686960000000000
O      -8.782700000000000     -4.229240000000000     -5.924330000000000
C      -8.251260000000000     -2.528630000000000     -7.512030000000000
C      -7.734060000000000     -6.294980000000000     -5.164510000000000
H      -7.034820000000000     -4.232130000000000     -7.043970000000000
H      -8.559450000000000     -4.590810000000000     -7.984050000000000
H      -9.773720000000001     -5.687200000000000     -4.900130000000000
H      -9.402290000000001     -6.130200000000000     -6.578970000000000
H      -7.379320000000000     -5.792530000000000     -4.241140000000000
H      -7.965150000000000     -7.354540000000000     -4.927070000000000
H      -6.928120000000000     -6.276250000000000     -5.926120000000000
H      -7.826860000000000     -1.893430000000000     -6.705170000000000
H      -7.706360000000000     -2.320320000000000     -8.456709999999999
H      -9.320410000000001     -2.264820000000000     -7.651550000000000
C     -12.651230000000000     -3.050240000000000     -8.048590000000001
C     -12.458399999999999     -0.830210000000000     -7.418490000000000
O     -12.001390000000001     -2.141490000000000     -7.193400000000000
C     -12.134380000000000     -4.448080000000000     -7.735180000000000
C     -11.696310000000000      0.102470000000000     -6.486510000000000
H     -13.751230000000000     -3.042830000000000     -7.876430000000000
H     -12.415720000000000     -2.825670000000000     -9.113030000000000
H     -12.253880000000001     -0.513120000000000     -8.465890000000000
H     -13.543279999999999     -0.743950000000000     -7.183890000000000
H     -10.607180000000000      0.038670000000000     -6.696840000000000
H     -12.030870000000000      1.150110000000000     -6.634920000000000
H     -11.874269999999999     -0.187220000000000     -5.428100000000000
H     -12.351649999999999     -4.707300000000000     -6.676400000000000
H     -12.619619999999999     -5.194650000000000     -8.397259999999999
H     -11.036849999999999     -4.488270000000000     -7.893840000000000
Mg    -11.234430000000000     -5.010660000000000      4.087980000000000
H      -8.405799999999999     -5.453540000000000      5.228800000000000
C      -8.053350000000000     -3.737750000000000      3.919370000000000
C      -8.700910000000000     -5.074770000000000      4.228590000000000
C      -6.536280000000000     -3.898860000000000      3.883610000000000
H      -8.423140000000000     -3.373920000000000      2.935920000000000
H      -8.347680000000000     -3.004970000000000      4.702480000000000
H      -6.183600000000000     -4.274960000000000      4.868770000000000
H      -6.264410000000000     -4.637000000000000      3.097530000000000
C      -5.847760000000000     -2.575880000000000      3.582290000000000
H      -8.487520000000000     -5.823710000000000      3.437490000000000
H      -6.176590000000000     -2.189150000000000      2.595290000000000
H      -6.090490000000000     -1.829590000000000      4.368240000000000
H      -4.749300000000000     -2.733420000000000      3.561040000000000
C     -12.678170000000000     -7.260630000000000      5.793900000000000
C     -14.005160000000000     -7.437880000000000      6.148850000000000
C     -14.712990000000000     -6.372470000000000      5.612670000000000
C     -13.786560000000000     -5.583610000000000      4.966810000000000
N     -12.569229999999999     -6.132540000000000      5.073600000000000
C     -14.033300000000001     -4.286240000000000      4.216550000000000
N     -12.743990000000000     -3.676980000000000      3.825710000000000
C     -12.691269999999999     -2.394420000000000      3.101700000000000
H     -14.413760000000000     -8.253520000000000      6.729910000000000
H     -11.852910000000000     -7.915330000000000      6.043080000000000
H     -15.775550000000001     -6.189770000000000      5.692070000000000
H     -14.579829999999999     -3.595560000000000      4.886100000000000
H     -14.645949999999999     -4.522400000000000      3.322830000000000
C     -13.249269999999999     -1.270230000000000      3.995030000000000
C     -11.222130000000000     -2.071910000000000      2.772940000000000
C     -13.486140000000001     -2.477250000000000      1.786680000000000
H     -12.666300000000000     -1.206790000000000      4.940200000000000
H     -13.188380000000000     -0.288970000000000      3.478040000000000
H     -14.312760000000001     -1.449630000000000      4.251930000000000
H     -10.782990000000000     -2.856760000000000      2.120780000000000
H     -11.144430000000000     -1.097140000000000      2.241350000000000
H     -10.615830000000001     -2.006530000000000      3.701780000000000
H     -13.084530000000001     -3.290290000000000      1.144250000000000
H     -14.560110000000000     -2.674130000000000      1.981910000000000
H     -13.416460000000001     -1.518590000000000      1.228900000000000

-C 0
6-31g(d,p)
****
-H 0
6-31g(d,p)
****
-Mg 0
6-31g(d,p)
****
-N 0
6-31+g(d,p)
****
-Na 0
6-31g(d,p)
****
-O 0
6-31+g(d,p)
****


