%chk=lowest10_c1_a2_speciation0_speciationDFT2_speciationDFT38_rank03_E180.85.chk
%nprocshared=20
%mem=40GB
#p opt=loose PM7/gen scf=xqc 

lowest10_c1_a2_speciation0_speciationDFT2_speciationDFT38_rank03_E180.85 DFT input

0 1
Mg      0.450090000000000      0.141540000000000     -0.896120000000000
C      -2.244400000000000     -1.129920000000000      0.501470000000000
C      -0.349100000000000     -2.521660000000000      0.949110000000000
O      -0.909930000000000     -1.480380000000000      0.179500000000000
C      -2.524250000000000     -0.903510000000000      1.988960000000000
C      -1.002970000000000     -3.865760000000000      0.669560000000000
H      -2.430800000000000     -0.158970000000000      0.002140000000000
H      -2.959740000000000     -1.851690000000000      0.058210000000000
H       0.713410000000000     -2.601340000000000      0.649660000000000
H      -0.317240000000000     -2.277800000000000      2.029230000000000
H      -0.441350000000000     -4.659620000000000      1.203950000000000
H      -0.985950000000000     -4.078290000000000     -0.419460000000000
H      -2.050970000000000     -3.862240000000000      1.027350000000000
H      -1.797260000000000     -0.195800000000000      2.420020000000000
H      -2.489010000000000     -1.860770000000000      2.546740000000000
H      -3.534620000000000     -0.464710000000000      2.110890000000000
H       0.464050000000000     -1.365500000000000     -3.094330000000000
C       2.595190000000000     -1.200470000000000     -2.601490000000000
C       1.185800000000000     -0.600710000000000     -2.743640000000000
C       2.733440000000000     -2.321370000000000     -1.552060000000000
H       2.909310000000000     -1.590580000000000     -3.591780000000000
H       3.292400000000000     -0.387450000000000     -2.305870000000000
H       3.791160000000000     -2.669500000000000     -1.550440000000000
H       2.517600000000000     -1.918390000000000     -0.542150000000000
C       1.843230000000000     -3.533710000000000     -1.824800000000000
H       1.201010000000000      0.245120000000000     -3.457260000000000
H       0.774800000000000     -3.246920000000000     -1.789120000000000
H       2.072430000000000     -3.971310000000000     -2.818340000000000
H       2.017710000000000     -4.308850000000000     -1.046420000000000
C       1.692700000000000     -0.374920000000000      2.803270000000000
C       2.539160000000000     -0.036740000000000      1.772350000000000
C       1.930830000000000      0.977380000000000      1.053720000000000
C       0.741600000000000      1.228930000000000      1.611610000000000
N       0.541340000000000      0.422350000000000      2.749610000000000
C      -0.286760000000000      2.198920000000000      1.093600000000000
N      -0.674750000000000      1.801780000000000     -0.265290000000000
C      -1.567390000000000      2.691470000000000     -1.046650000000000
H       3.491320000000000     -0.504350000000000      1.560600000000000
H       1.866860000000000     -1.146820000000000      3.539320000000000
H       2.324960000000000      1.445000000000000      0.159210000000000
H       0.141910000000000      3.218100000000000      1.111370000000000
H      -1.174630000000000      2.152000000000000      1.757230000000000
C      -0.853450000000000      4.013960000000000     -1.387960000000000
C      -1.946520000000000      1.982060000000000     -2.356940000000000
C      -2.866960000000000      2.998200000000000     -0.263110000000000
H       0.066580000000000      3.817450000000000     -1.976830000000000
H      -1.521580000000000      4.675950000000000     -1.981540000000000
H      -0.576790000000000      4.574760000000000     -0.472510000000000
H      -2.498350000000000      1.040600000000000     -2.151680000000000
H      -2.597160000000000      2.633920000000000     -2.982630000000000
H      -1.035600000000000      1.735610000000000     -2.941570000000000
H      -3.403890000000000      2.060330000000000     -0.006050000000000
H      -2.655430000000000      3.549650000000000      0.676760000000000
H      -3.553140000000000      3.631060000000000     -0.868010000000000
Na     -3.670610000000000     12.080050000000000      1.574490000000000
C      -2.202780000000000     10.713240000000001      4.173590000000000
C      -2.948270000000000     12.831510000000000      4.688130000000000
O      -2.208970000000000     12.063810000000000      3.762600000000000
C      -1.396700000000000      9.892440000000001      3.177250000000000
C      -2.964850000000000     14.284140000000001      4.232450000000000
H      -1.720310000000000     10.604749999999999      5.171800000000000
H      -3.237480000000000     10.302170000000000      4.192460000000000
H      -4.004170000000000     12.480490000000000      4.739860000000000
H      -2.475420000000000     12.796640000000000      5.695970000000000
H      -3.440500000000000     14.366289999999999      3.232010000000000
H      -3.543100000000000     14.897810000000000      4.955500000000000
H      -1.928390000000000     14.679470000000000      4.175250000000000
H      -0.351300000000000     10.265319999999999      3.131720000000000
H      -1.385260000000000      8.827070000000001      3.491360000000000
H      -1.851500000000000      9.964470000000000      2.166280000000000
Na      0.273770000000000     12.859550000000000      4.138530000000000
Mg     -2.291080000000000      5.758930000000000      5.442250000000000
H      -2.096480000000000      2.691340000000000      5.277640000000000
C       0.008110000000000      3.218820000000000      5.610320000000000
C      -1.341670000000000      3.429290000000000      4.938210000000000
C      -0.022020000000000      3.457690000000000      7.129070000000000
H       0.360380000000000      2.189870000000000      5.388600000000000
H       0.729450000000000      3.940790000000000      5.169740000000000
H       1.002800000000000      3.276280000000000      7.520080000000000
H      -0.290610000000000      4.513760000000000      7.344770000000000
C      -0.992160000000000      2.542300000000000      7.874480000000000
H      -1.247210000000000      3.381080000000000      3.835490000000000
H      -2.040670000000000      2.761840000000000      7.584370000000000
H      -0.761730000000000      1.477370000000000      7.662920000000000
H      -0.899270000000000      2.719450000000000      8.967050000000000
C      -0.460830000000000      7.492780000000000      7.371370000000000
C      -0.734570000000000      8.608930000000001      8.146200000000000
C      -2.077320000000000      8.902620000000001      7.965450000000000
C      -2.569850000000000      7.945760000000000      7.107950000000000
N      -1.581410000000000      7.110160000000000      6.745830000000000
C      -3.986600000000000      7.796110000000000      6.591880000000000
N      -4.132600000000000      6.498950000000000      5.898130000000000
C      -5.419950000000000      6.095440000000000      5.305840000000000
H      -0.035940000000000      9.149620000000001      8.768430000000000
H       0.499700000000000      7.000350000000000      7.273690000000000
H      -2.633910000000000      9.713369999999999      8.417949999999999
H      -4.189290000000000      8.644500000000001      5.906350000000000
H      -4.678390000000000      7.828480000000000      7.455270000000000
C      -5.908420000000000      7.135910000000000      4.281950000000000
C      -5.229230000000000      4.744340000000000      4.592110000000000
C      -6.467800000000000      5.914120000000000      6.421550000000000
H      -5.154940000000000      7.269790000000000      3.476600000000000
H      -6.865110000000000      6.806710000000000      3.821520000000000
H      -6.092430000000000      8.116970000000000      4.765920000000000
H      -4.869440000000000      3.969560000000000      5.303310000000000
H      -6.190710000000000      4.393360000000000      4.155010000000000
H      -4.486980000000000      4.833770000000000      3.770150000000000
H      -6.116420000000000      5.157760000000000      7.157580000000000
H      -6.652990000000000      6.865370000000000      6.960390000000000
H      -7.437350000000000      5.571400000000000      6.001620000000000

-C 0
6-31g(d,p)
****
-H 0
6-31g(d,p)
****
-Mg 0
6-31g(d,p)
****
-N 0
6-31+g(d,p)
****
-Na 0
6-31g(d,p)
****
-O 0
6-31+g(d,p)
****


