%chk=lowest10_c1_a2_speciation7_speciationDFT36_speciationDFT96_rank10_E228.67.chk
%nprocshared=20
%mem=40GB
#p opt=loose PM7/gen scf=xqc 

lowest10_c1_a2_speciation7_speciationDFT36_speciationDFT96_rank10_E228.67 DFT input

0 1
Mg     -0.163190000000000     -0.203330000000000     -0.381630000000000
C       3.270590000000000     -0.140680000000000     -1.011420000000000
C       2.308870000000000      2.017350000000000     -0.670930000000000
O       2.176470000000000      0.615850000000000     -0.527530000000000
C       4.560260000000000      0.078740000000000     -0.227380000000000
C       2.376710000000000      2.480140000000000     -2.123860000000000
H       2.988280000000000     -1.208760000000000     -0.888740000000000
H       3.434100000000000      0.003100000000000     -2.096320000000000
H       1.387840000000000      2.463440000000000     -0.246040000000000
H       3.137810000000000      2.422530000000000     -0.056090000000000
H       1.529490000000000      2.055730000000000     -2.701290000000000
H       2.311940000000000      3.587730000000000     -2.155330000000000
H       3.335800000000000      2.178880000000000     -2.588860000000000
H       4.391360000000000     -0.086260000000000      0.855680000000000
H       5.325100000000000     -0.642710000000000     -0.584070000000000
H       4.947630000000000      1.103200000000000     -0.393000000000000
H       0.718940000000000     -2.406160000000000     -2.149810000000000
C       0.632420000000000     -0.792920000000000     -3.637650000000000
C       0.090830000000000     -1.537900000000000     -2.437290000000000
C       0.621420000000000     -1.711430000000000     -4.846860000000000
H       0.005530000000000      0.101200000000000     -3.833640000000000
H       1.665060000000000     -0.455470000000000     -3.423720000000000
H       1.249700000000000     -2.603330000000000     -4.632350000000000
H      -0.422330000000000     -2.040080000000000     -5.043530000000000
C       1.164780000000000     -0.995230000000000     -6.072630000000000
H      -0.976500000000000     -1.814770000000000     -2.561620000000000
H       0.540340000000000     -0.106080000000000     -6.304620000000000
H       2.212370000000000     -0.671280000000000     -5.893520000000000
H       1.142170000000000     -1.690100000000000     -6.936170000000000
C      -1.885210000000000     -0.888310000000000      4.114700000000000
C      -3.126470000000000     -0.469890000000000      3.688400000000000
C      -2.914240000000000      0.543640000000000      2.766330000000000
C      -1.595960000000000      0.684370000000000      2.653230000000000
N      -0.965840000000000     -0.218200000000000      3.523730000000000
C      -0.812760000000000      1.675740000000000      1.813710000000000
N      -0.895290000000000      1.510910000000000      0.350340000000000
C      -2.012770000000000      1.971530000000000     -0.485880000000000
H      -4.079490000000000     -0.854890000000000      4.029520000000000
H      -1.676930000000000     -1.662050000000000      4.839220000000000
H      -3.684470000000000      1.103640000000000      2.266750000000000
H       0.257130000000000      1.517110000000000      2.069720000000000
H      -1.047910000000000      2.712020000000000      2.113300000000000
C      -2.688580000000000      3.200820000000000      0.124120000000000
C      -1.426740000000000      2.366360000000000     -1.856320000000000
C      -3.014690000000000      0.823840000000000     -0.728240000000000
H      -1.927390000000000      3.997060000000000      0.271400000000000
H      -3.483890000000000      3.581420000000000     -0.546900000000000
H      -3.142450000000000      2.955830000000000      1.101610000000000
H      -0.911810000000000      1.502260000000000     -2.321960000000000
H      -2.224870000000000      2.702680000000000     -2.552880000000000
H      -0.681560000000000      3.183200000000000     -1.750640000000000
H      -2.531380000000000     -0.020920000000000     -1.267970000000000
H      -3.421650000000000      0.415630000000000      0.206930000000000
H      -3.865710000000000      1.178900000000000     -1.347790000000000
C      -0.038930000000000     -2.674630000000000      1.580420000000000
C       1.747040000000000     -1.227870000000000      2.112750000000000
O       0.853870000000000     -1.681540000000000      1.115550000000000
C      -1.411320000000000     -2.490150000000000      0.928700000000000
C       2.862940000000000     -2.227110000000000      2.341640000000000
H       0.357790000000000     -3.667060000000000      1.286790000000000
H      -0.184580000000000     -2.654500000000000      2.681850000000000
H       2.188300000000000     -0.271460000000000      1.768740000000000
H       1.249690000000000     -0.979990000000000      3.066150000000000
H       3.384650000000000     -2.433360000000000      1.384550000000000
H       3.582180000000000     -1.807180000000000      3.074480000000000
H       2.438380000000000     -3.168020000000000      2.746050000000000
H      -1.854740000000000     -1.514450000000000      1.197020000000000
H      -1.338470000000000     -2.535890000000000     -0.176270000000000
H      -2.101060000000000     -3.288150000000000      1.272310000000000
Na      2.579000000000000     13.911849999999999      7.834410000000000
C       4.297880000000000     16.592120000000001      8.065540000000000
C       3.993350000000000     15.839230000000001     10.266080000000001
O       3.430670000000000     15.938480000000000      8.971750000000000
C       5.224300000000000     15.591080000000000      7.382600000000000
C       3.631580000000000     17.052299999999999     11.119380000000000
H       3.672600000000000     17.076190000000000      7.285710000000000
H       4.882190000000000     17.410119999999999      8.543799999999999
H       3.571850000000000     14.931850000000001     10.748960000000000
H       5.096260000000000     15.694290000000001     10.244310000000000
H       2.529910000000000     17.145910000000001     11.215190000000000
H       4.064670000000000     16.930399999999999     12.134150000000000
H       4.036350000000000     17.982540000000000     10.670320000000000
H       4.629550000000000     14.822789999999999      6.845600000000000
H       5.867780000000000     16.121919999999999      6.650710000000000
H       5.874940000000000     15.089130000000001      8.127280000000001
C       4.974330000000000     12.008670000000000      9.218000000000000
C       3.352670000000000     10.676760000000000      8.084690000000000
O       3.712880000000000     11.956329999999999      8.575450000000000
C       6.150240000000000     11.680730000000001      8.297290000000000
C       3.191930000000000      9.624359999999999      9.181440000000000
H       5.113070000000000     13.058759999999999      9.550780000000000
H       4.990500000000000     11.399770000000000     10.144959999999999
H       2.357430000000000     10.793350000000000      7.604050000000000
H       4.032960000000000     10.335350000000000      7.277340000000000
H       2.490540000000000      9.990819999999999      9.960279999999999
H       2.784030000000000      8.692130000000001      8.737480000000000
H       4.169650000000000      9.378990000000000      9.643100000000000
H       6.121560000000000     12.327070000000001      7.394940000000000
H       7.100740000000000     11.864070000000000      8.841170000000000
H       6.135700000000000     10.614000000000001      7.995770000000000
Na      1.239540000000000     16.848649999999999      9.262740000000001
C      -0.274010000000000     14.696339999999999      7.234660000000000
C      -0.295880000000000     13.967700000000001      9.457720000000000
O       0.389850000000000     14.724170000000001      8.480689999999999
C       0.297050000000000     15.797110000000000      6.349780000000000
C      -0.037760000000000     12.469110000000001      9.308410000000000
H      -0.090260000000000     13.725420000000000      6.730850000000000
H      -1.366680000000000     14.884650000000001      7.335440000000000
H       0.097340000000000     14.281169999999999     10.448510000000001
H      -1.385230000000000     14.192050000000000      9.475490000000001
H       1.051370000000000     12.263040000000000      9.354260000000000
H      -0.537710000000000     11.925680000000000     10.137400000000000
H      -0.443980000000000     12.089700000000001      8.348570000000000
H       1.391060000000000     15.655260000000000      6.217520000000000
H      -0.190910000000000     15.771620000000000      5.352670000000000
H       0.116490000000000     16.790910000000000      6.809930000000000
C      -1.364810000000000     18.890789999999999      9.103420000000000
C       0.492010000000000     19.936859999999999      8.197300000000000
O      -0.022300000000000     18.733409999999999      8.713179999999999
C      -1.849840000000000     17.565819999999999      9.676700000000000
C       1.932030000000000     19.689730000000001      7.767660000000000
H      -1.461000000000000     19.665669999999999      9.897150000000000
H      -2.002420000000000     19.141500000000001      8.226190000000001
H      -0.083540000000000     20.262650000000001      7.301760000000000
H       0.494520000000000     20.731929999999998      8.976580000000000
H       1.962610000000000     18.898630000000001      6.988100000000000
H       2.373760000000000     20.619969999999999      7.354090000000000
H       2.538140000000000     19.358020000000000      8.638520000000000
H      -1.233490000000000     17.281939999999999     10.557020000000000
H      -2.911190000000000     17.648040000000002      9.989670000000000
H      -1.763290000000000     16.768960000000000      8.909250000000000
Mg     -2.872450000000000      7.491880000000000      6.106570000000000
C      -1.970030000000000      8.007050000000000      2.381680000000000
C      -3.881470000000000      9.222690000000000      2.814270000000000
O      -3.214050000000000      8.000790000000000      3.053520000000000
C      -1.451740000000000      6.582270000000000      2.264640000000000
C      -5.167390000000000      9.266679999999999      3.627520000000000
H      -2.058060000000000      8.400910000000000      1.343750000000000
H      -1.231470000000000      8.612140000000000      2.949050000000000
H      -3.252190000000000     10.089680000000000      3.112490000000000
H      -4.156100000000000      9.311730000000001      1.740680000000000
H      -4.943140000000000      9.192019999999999      4.710800000000000
H      -5.697900000000000     10.224040000000000      3.439080000000000
H      -5.829780000000000      8.424939999999999      3.335990000000000
H      -2.174140000000000      5.961540000000000      1.697620000000000
H      -0.470590000000000      6.577620000000000      1.745860000000000
H      -1.317210000000000      6.134780000000000      3.261720000000000
H      -6.028680000000000      6.830900000000000      5.375610000000000
C      -5.497880000000000      6.990700000000000      7.495350000000000
C      -5.233020000000000      6.505390000000000      6.075430000000000
C      -5.568520000000000      8.521570000000001      7.559820000000000
H      -6.458770000000000      6.551850000000000      7.835160000000000
H      -4.680690000000000      6.633890000000000      8.160840000000000
H      -4.588540000000000      8.962389999999999      7.273590000000000
H      -6.343890000000000      8.891970000000001      6.855560000000000
C      -5.931310000000000      8.990449999999999      8.966089999999999
H      -5.125580000000000      5.401560000000000      6.050300000000000
H      -6.920690000000000      8.578099999999999      9.258860000000000
H      -5.165970000000000      8.657610000000000      9.699000000000000
H      -5.990590000000000     10.099130000000001      8.988790000000000
C      -2.433510000000000     10.584490000000001      5.576030000000000
C      -1.286670000000000     11.311959999999999      5.316510000000000
C      -0.227350000000000     10.415749999999999      5.330810000000000
C      -0.778530000000000      9.175310000000000      5.573340000000000
N      -2.102210000000000      9.292220000000000      5.723740000000000
C      -0.067040000000000      7.836280000000000      5.687740000000000
N      -1.045550000000000      6.721650000000000      5.643140000000000
C      -0.650670000000000      5.390830000000000      6.144400000000000
H      -1.231520000000000     12.376450000000000      5.138100000000000
H      -3.441260000000000     10.974650000000000      5.640650000000000
H       0.816910000000000     10.641620000000000      5.167590000000000
H       0.623750000000000      7.719520000000000      4.827960000000000
H       0.511660000000000      7.846550000000000      6.632480000000000
C      -0.561060000000000      5.393240000000000      7.679740000000000
C      -1.728240000000000      4.371110000000000      5.720540000000000
C       0.694350000000000      4.960690000000000      5.524420000000000
H      -1.542640000000000      5.668180000000000      8.122859999999999
H      -0.281000000000000      4.382580000000000      8.049530000000001
H       0.202770000000000      6.109440000000000      8.041230000000001
H      -1.829110000000000      4.324980000000000      4.615760000000000
H      -1.467570000000000      3.350100000000000      6.077240000000000
H      -2.717080000000000      4.643310000000000      6.145860000000000
H       0.624990000000000      4.965950000000000      4.414540000000000
H       1.511550000000000      5.647390000000000      5.827740000000000
H       0.970500000000000      3.936080000000000      5.852620000000000

-C 0
6-31g(d,p)
****
-H 0
6-31g(d,p)
****
-Mg 0
6-31g(d,p)
****
-N 0
6-31+g(d,p)
****
-Na 0
6-31g(d,p)
****
-O 0
6-31+g(d,p)
****


