%chk=lowest10_c1_a2_speciation0_speciationDFT36_speciationDFT36_rank02_E181.52.chk
%nprocshared=20
%mem=40GB
#p opt=loose PM7/gen scf=xqc 

lowest10_c1_a2_speciation0_speciationDFT36_speciationDFT36_rank02_E181.52 DFT input

0 1
Mg     -0.293500000000000      0.401340000000000      0.667310000000000
C       0.967600000000000     -2.471740000000000     -1.401840000000000
C      -1.337340000000000     -2.549650000000000     -1.388340000000000
O      -0.187760000000000     -2.305890000000000     -0.602820000000000
C       2.187150000000000     -2.641510000000000     -0.508620000000000
C      -2.589110000000000     -2.284630000000000     -0.562360000000000
H       0.907990000000000     -3.383780000000000     -2.036620000000000
H       1.118820000000000     -1.582490000000000     -2.048020000000000
H      -1.361170000000000     -1.890920000000000     -2.281660000000000
H      -1.366670000000000     -3.609730000000000     -1.717770000000000
H      -2.624370000000000     -1.226520000000000     -0.233100000000000
H      -3.492200000000000     -2.494750000000000     -1.173670000000000
H      -2.599280000000000     -2.942220000000000      0.331600000000000
H       2.061150000000000     -3.524210000000000      0.150330000000000
H       3.096590000000000     -2.767720000000000     -1.131960000000000
H       2.331730000000000     -1.757510000000000      0.128220000000000
H      -2.280130000000000     -1.424550000000000      2.360180000000000
C      -2.431980000000000      0.743090000000000      2.735730000000000
C      -1.635860000000000     -0.540040000000000      2.529720000000000
C      -3.342340000000000      1.046650000000000      1.537720000000000
H      -3.041580000000000      0.618330000000000      3.653170000000000
H      -1.726200000000000      1.591810000000000      2.878560000000000
H      -2.732150000000000      1.233840000000000      0.626260000000000
H      -4.010650000000000      0.180530000000000      1.344770000000000
C      -4.210390000000000      2.271980000000000      1.815310000000000
H      -0.920420000000000     -0.712850000000000      3.359280000000000
H      -4.841350000000000      2.092470000000000      2.712160000000000
H      -3.578610000000000      3.168800000000000      1.989040000000000
H      -4.877780000000000      2.466830000000000      0.949210000000000
C      -1.506690000000000      0.663430000000000     -2.242340000000000
C      -0.906870000000000      0.971740000000000     -3.450460000000000
C       0.434560000000000      1.203240000000000     -3.183130000000000
C       0.599450000000000      1.012110000000000     -1.830950000000000
N      -0.575270000000000      0.677460000000000     -1.280340000000000
C       1.866240000000000      1.166750000000000     -1.008220000000000
N       1.700020000000000      0.569720000000000      0.337330000000000
C       2.637080000000000      0.944690000000000      1.415270000000000
H      -1.392660000000000      1.023130000000000     -4.413860000000000
H      -2.553790000000000      0.427980000000000     -2.086450000000000
H       1.205040000000000      1.469710000000000     -3.893050000000000
H       2.702740000000000      0.648710000000000     -1.518970000000000
H       2.074890000000000      2.252600000000000     -0.947870000000000
C       2.385130000000000      2.386360000000000      1.890770000000000
C       2.416850000000000     -0.005130000000000      2.610670000000000
C       4.091640000000000      0.786710000000000      0.929140000000000
H       1.354350000000000      2.490410000000000      2.293220000000000
H       3.103970000000000      2.650830000000000      2.696100000000000
H       2.520950000000000      3.117330000000000      1.070310000000000
H       2.598210000000000     -1.062750000000000      2.326090000000000
H       3.108880000000000      0.244120000000000      3.445550000000000
H       1.377300000000000      0.076420000000000      2.990940000000000
H       4.266180000000000     -0.252270000000000      0.573510000000000
H       4.308090000000000      1.483440000000000      0.093120000000000
H       4.809550000000000      1.002650000000000      1.748200000000000
Na      0.725730000000000     14.057340000000000      5.905390000000000
C       1.907310000000000     11.197550000000000      7.000760000000000
C      -0.395720000000000     11.183830000000000      7.032710000000000
O       0.756700000000000     11.904780000000001      7.411800000000000
C       3.146170000000000     11.973500000000000      7.424900000000000
C      -1.634140000000000     11.954029999999999      7.467110000000000
H       1.951570000000000     10.194990000000001      7.484900000000000
H       1.932930000000000     11.096250000000000      5.891850000000000
H      -0.441360000000000     11.062099999999999      5.926260000000000
H      -0.422080000000000     10.193800000000000      7.538520000000000
H      -1.654270000000000     12.952389999999999      6.980880000000000
H      -2.546560000000000     11.392760000000001      7.173230000000000
H      -1.634180000000000     12.086259999999999      8.569960000000000
H       3.165580000000000     12.088720000000000      8.529510000000000
H       4.059100000000000     11.428030000000000      7.104690000000000
H       3.146130000000000     12.980090000000001      6.955050000000000
Na      0.785630000000000     11.675310000000000     10.037229999999999
Mg      0.179280000000000      4.939610000000000      7.254490000000000
C       1.440520000000000      4.626730000000000     10.899720000000000
C      -0.864030000000000      4.685820000000000     10.957500000000000
O       0.288100000000000      5.238300000000000     10.355010000000000
C       2.658930000000000      5.485570000000000     10.598699999999999
C      -2.108210000000000      5.256870000000000     10.292170000000000
H       1.380400000000000      4.534740000000000     12.007899999999999
H       1.589800000000000      3.622380000000000     10.449560000000000
H      -0.886280000000000      3.579730000000000     10.843890000000000
H      -0.903750000000000      4.952070000000000     12.036190000000000
H      -2.119000000000000      5.006550000000000      9.212070000000001
H      -3.016890000000000      4.828700000000000     10.765940000000001
H      -2.127980000000000      6.360690000000000     10.408300000000001
H       2.535760000000000      6.493890000000000     11.044630000000000
H       3.570250000000000      5.006640000000000     11.013240000000000
H       2.793200000000000      5.600110000000000      9.511620000000001
H      -1.868670000000000      7.418160000000000      8.044230000000001
C      -1.984620000000000      6.624020000000000      6.005020000000000
C      -1.199070000000000      7.092720000000000      7.222720000000000
C      -2.884770000000000      5.430480000000000      6.347040000000000
H      -2.599340000000000      7.474310000000000      5.643470000000000
H      -1.271260000000000      6.325950000000000      5.204920000000000
H      -2.264660000000000      4.560990000000000      6.657040000000000
H      -3.563220000000000      5.699480000000000      7.184780000000000
C      -3.735760000000000      5.028780000000000      5.145510000000000
H      -0.499250000000000      7.906130000000000      6.946470000000000
H      -4.380260000000000      5.879920000000000      4.837700000000000
H      -3.091210000000000      4.731020000000000      4.291290000000000
H      -4.388120000000000      4.172130000000000      5.416890000000000
C      -1.022050000000000      2.299920000000000      8.530440000000000
C      -0.427170000000000      1.098620000000000      8.872180000000000
C       0.916270000000000      1.205780000000000      8.541869999999999
C       1.086750000000000      2.475710000000000      8.033230000000000
N      -0.085990000000000      3.119340000000000      8.027350000000000
C       2.364420000000000      3.117880000000000      7.517000000000000
N       2.181000000000000      4.580500000000000      7.348970000000000
C       3.112810000000000      5.332710000000000      6.486580000000000
H      -0.918600000000000      0.240590000000000      9.310250000000000
H      -2.066930000000000      2.557090000000000      8.650810000000000
H       1.678800000000000      0.450620000000000      8.670970000000001
H       3.174520000000000      2.957200000000000      8.257339999999999
H       2.626330000000000      2.617870000000000      6.563500000000000
C       2.851380000000000      5.022390000000000      5.003500000000000
C       2.880140000000000      6.840230000000000      6.717680000000000
C       4.573120000000000      5.003330000000000      6.858330000000000
H       1.808870000000000      5.293460000000000      4.729770000000000
H       3.545620000000000      5.606220000000000      4.360180000000000
H       3.006960000000000      3.948930000000000      4.782980000000000
H       3.061650000000000      7.118670000000000      7.776970000000000
H       3.567040000000000      7.447040000000000      6.087300000000000
H       1.837310000000000      7.122370000000000      6.461700000000000
H       4.755040000000000      5.223320000000000      7.933050000000000
H       4.799760000000000      3.932170000000000      6.677340000000000
H       5.280920000000000      5.608150000000000      6.252570000000000

-C 0
6-31g(d,p)
****
-H 0
6-31g(d,p)
****
-Mg 0
6-31g(d,p)
****
-N 0
6-31+g(d,p)
****
-Na 0
6-31g(d,p)
****
-O 0
6-31+g(d,p)
****


