%chk=lowest10_c1_a2_speciation0_speciationDFT1_speciationDFT38_rank09_E180.97.chk
%nprocshared=20
%mem=40GB
#p opt=loose PM7/gen scf=xqc 

lowest10_c1_a2_speciation0_speciationDFT1_speciationDFT38_rank09_E180.97 DFT input

0 1
Mg      0.781200000000000     -0.338070000000000     -0.533800000000000
C      -0.336240000000000      2.144750000000000      1.314570000000000
C      -1.361810000000000      2.200680000000000     -0.847480000000000
O      -0.324540000000000      1.701910000000000     -0.031180000000000
C      -1.682440000000000      2.029020000000000      2.033390000000000
C      -1.229000000000000      3.693250000000000     -1.106100000000000
H       0.361170000000000      1.477820000000000      1.858310000000000
H       0.082160000000000      3.168150000000000      1.396710000000000
H      -1.273500000000000      1.686110000000000     -1.823380000000000
H      -2.365640000000000      1.919060000000000     -0.473120000000000
H      -1.992740000000000      4.001090000000000     -1.849830000000000
H      -0.219280000000000      3.922130000000000     -1.505490000000000
H      -1.390490000000000      4.259090000000000     -0.167980000000000
H      -2.093860000000000      1.011380000000000      1.931670000000000
H      -2.407200000000000      2.766330000000000      1.633630000000000
H      -1.540920000000000      2.228520000000000      3.114320000000000
H       2.620610000000000      1.024320000000000     -1.898670000000000
C       1.801690000000000     -0.339170000000000     -3.409370000000000
C       2.298590000000000     -0.032770000000000     -1.986160000000000
C       0.553010000000000      0.446670000000000     -3.856680000000000
H       2.630610000000000     -0.136690000000000     -4.118880000000000
H       1.546220000000000     -1.419040000000000     -3.465040000000000
H       0.300810000000000      0.138730000000000     -4.896650000000000
H      -0.309690000000000      0.177130000000000     -3.214820000000000
C       0.745300000000000      1.963120000000000     -3.852330000000000
H       3.144190000000000     -0.697570000000000     -1.725580000000000
H       0.951820000000000      2.325490000000000     -2.827100000000000
H       1.583340000000000      2.252750000000000     -4.519370000000000
H      -0.182930000000000      2.459120000000000     -4.212240000000000
C      -3.108000000000000     -0.824860000000000     -0.889850000000000
C      -2.197000000000000     -1.521070000000000     -1.650670000000000
C      -1.205820000000000     -1.973680000000000     -0.797520000000000
C      -1.489240000000000     -1.543910000000000      0.436850000000000
N      -2.704380000000000     -0.830710000000000      0.452060000000000
C      -0.627120000000000     -1.736040000000000      1.656210000000000
N       0.679910000000000     -1.111520000000000      1.418380000000000
C       1.758380000000000     -1.297870000000000      2.418840000000000
H      -2.247350000000000     -1.659560000000000     -2.722240000000000
H      -3.994700000000000     -0.328910000000000     -1.258230000000000
H      -0.323160000000000     -2.530090000000000     -1.089740000000000
H      -0.528540000000000     -2.818830000000000      1.857850000000000
H      -1.122050000000000     -1.237240000000000      2.514920000000000
C       2.211000000000000     -2.770430000000000      2.462250000000000
C       2.958180000000000     -0.423490000000000      2.019170000000000
C       1.286440000000000     -0.865130000000000      3.828290000000000
H       2.582070000000000     -3.091770000000000      1.466840000000000
H       3.025850000000000     -2.906170000000000      3.206940000000000
H       1.382780000000000     -3.441600000000000      2.766720000000000
H       2.679910000000000      0.651480000000000      2.014160000000000
H       3.799110000000000     -0.558810000000000      2.736310000000000
H       3.317390000000000     -0.698680000000000      1.005510000000000
H       0.956190000000000      0.195490000000000      3.826000000000000
H       0.444410000000000     -1.493490000000000      4.186380000000000
H       2.109960000000000     -0.966010000000000      4.569170000000000
Na     -2.165120000000000    -16.515029999999999      7.823590000000000
C      -1.932770000000000    -13.746810000000000      6.082310000000000
C      -3.280180000000000    -13.425340000000000      7.922510000000000
O      -3.035250000000000    -14.251620000000001      6.804630000000000
C      -1.681230000000000    -14.633070000000000      4.870910000000000
C      -4.459890000000000    -13.983330000000000      8.705850000000000
H      -2.140720000000000    -12.718360000000001      5.711750000000000
H      -1.011780000000000    -13.756800000000000      6.708570000000000
H      -2.398690000000000    -13.409150000000000      8.603479999999999
H      -3.543740000000000    -12.392189999999999      7.599760000000000
H      -4.233560000000000    -15.012990000000000      9.056020000000000
H      -4.661850000000000    -13.340719999999999      9.588930000000000
H      -5.366820000000000    -14.008450000000000      8.065070000000000
H      -2.575570000000000    -14.643230000000001      4.212250000000000
H      -0.815460000000000    -14.243510000000001      4.294400000000000
H      -1.457660000000000    -15.671200000000001      5.196630000000000
Na     -5.093940000000000    -13.774929999999999      5.229700000000000
Mg     -5.787320000000000     -7.158540000000000      5.589430000000000
H      -6.984740000000000     -4.334140000000000      5.250630000000000
C      -4.963360000000000     -4.016770000000000      4.478890000000000
C      -5.937000000000000     -4.624420000000000      5.471750000000000
C      -5.015440000000000     -2.494600000000000      4.574880000000000
H      -3.937780000000000     -4.380310000000000      4.707480000000000
H      -5.237740000000000     -4.350280000000000      3.454080000000000
H      -6.048530000000000     -2.147780000000000      4.354490000000000
H      -4.743210000000000     -2.182480000000000      5.606940000000000
C      -4.053020000000000     -1.846910000000000      3.590420000000000
H      -5.663770000000000     -4.370810000000000      6.517440000000000
H      -3.012610000000000     -2.168010000000000      3.807150000000000
H      -4.318560000000000     -2.132000000000000      2.550390000000000
H      -4.117860000000000     -0.743370000000000      3.689020000000000
C      -8.428179999999999     -8.557190000000000      6.644700000000000
C      -8.828450000000000     -9.884069999999999      6.659210000000000
C      -7.809390000000000    -10.616510000000000      6.069320000000000
C      -6.840260000000000     -9.709040000000000      5.707060000000000
N      -7.221910000000000     -8.472230000000000      6.069290000000000
C      -5.517850000000000     -9.983040000000001      5.016730000000000
N      -4.861180000000000     -8.708280000000000      4.657320000000000
C      -3.567300000000000     -8.683780000000000      3.953380000000000
H      -9.754330000000000    -10.274340000000000      7.056920000000000
H      -8.986720000000000     -7.714250000000000      7.035230000000000
H      -7.782120000000000    -11.687340000000001      5.913640000000000
H      -5.719630000000000    -10.565790000000000      4.097510000000000
H      -4.886330000000000    -10.571630000000001      5.713990000000000
C      -3.727890000000000     -9.295570000000000      2.548770000000000
C      -3.115310000000000     -7.220210000000000      3.798790000000000
C      -2.499040000000000     -9.451240000000000      4.751200000000000
H      -4.494110000000000     -8.732939999999999      1.971270000000000
H      -2.768490000000000     -9.257099999999999      1.990230000000000
H      -4.042200000000000    -10.357300000000000      2.605080000000000
H      -2.979530000000000     -6.743030000000000      4.792770000000000
H      -2.147070000000000     -7.164420000000000      3.252800000000000
H      -3.866650000000000     -6.634030000000000      3.227330000000000
H      -2.386240000000000     -9.012540000000000      5.765960000000000
H      -2.773700000000000    -10.519990000000000      4.853190000000000
H      -1.517110000000000     -9.404460000000000      4.233100000000000

-C 0
6-31g(d,p)
****
-H 0
6-31g(d,p)
****
-Mg 0
6-31g(d,p)
****
-N 0
6-31+g(d,p)
****
-Na 0
6-31g(d,p)
****
-O 0
6-31+g(d,p)
****


