%chk=lowest10_c1_a2_speciation7_speciationDFT0_speciationDFT36_rank06_E221.41.chk
%nprocshared=20
%mem=40GB
#p opt=loose PM7/gen scf=xqc 

lowest10_c1_a2_speciation7_speciationDFT0_speciationDFT36_rank06_E221.41 DFT input

0 1
Mg     -0.717410000000000      0.273850000000000     -0.231130000000000
C       1.763480000000000     -1.886680000000000      1.588130000000000
C       1.179220000000000     -2.951240000000000     -0.372170000000000
O       0.692760000000000     -2.190720000000000      0.715330000000000
C       1.214890000000000     -1.459060000000000      2.940800000000000
C       0.052560000000000     -3.209400000000000     -1.363440000000000
H       2.414340000000000     -2.770250000000000      1.772930000000000
H       2.374500000000000     -1.058740000000000      1.172570000000000
H       1.997590000000000     -2.419790000000000     -0.901290000000000
H       1.554150000000000     -3.934620000000000     -0.022440000000000
H      -0.336810000000000     -2.254180000000000     -1.770010000000000
H       0.430310000000000     -3.824890000000000     -2.207170000000000
H      -0.774830000000000     -3.754390000000000     -0.863320000000000
H       0.596810000000000     -2.268600000000000      3.378310000000000
H       2.052020000000000     -1.215280000000000      3.627330000000000
H       0.585000000000000     -0.563810000000000      2.842000000000000
H      -2.744180000000000     -2.131890000000000     -0.738000000000000
C      -3.269840000000000     -0.226120000000000     -1.714450000000000
C      -2.797610000000000     -1.047470000000000     -0.520730000000000
C      -2.357080000000000     -0.416740000000000     -2.933750000000000
H      -4.301770000000000     -0.548950000000000     -1.959030000000000
H      -3.280540000000000      0.851200000000000     -1.434960000000000
H      -1.334660000000000     -0.036670000000000     -2.714140000000000
H      -2.287580000000000     -1.496340000000000     -3.185720000000000
C      -2.913180000000000      0.325450000000000     -4.146920000000000
H      -3.410750000000000     -0.844560000000000      0.380850000000000
H      -3.927160000000000     -0.057540000000000     -4.391600000000000
H      -2.975330000000000      1.415840000000000     -3.944720000000000
H      -2.254280000000000      0.161830000000000     -5.025820000000000
C       1.775930000000000     -0.184410000000000     -2.123090000000000
C       3.075720000000000      0.282560000000000     -2.039360000000000
C       3.139340000000000      1.087070000000000     -0.911010000000000
C       1.884950000000000      1.064950000000000     -0.347160000000000
N       1.078360000000000      0.287150000000000     -1.082000000000000
C       1.397650000000000      1.800300000000000      0.888590000000000
N       0.090530000000000      1.269140000000000      1.339940000000000
C      -0.738940000000000      2.074690000000000      2.258470000000000
H       3.882310000000000      0.062650000000000     -2.723260000000000
H       1.377060000000000     -0.840560000000000     -2.889030000000000
H       4.002650000000000      1.619320000000000     -0.536700000000000
H       2.130610000000000      1.667140000000000      1.709540000000000
H       1.328220000000000      2.870860000000000      0.614050000000000
C      -1.345550000000000      3.289780000000000      1.534370000000000
C      -1.893810000000000      1.193790000000000      2.777830000000000
C       0.103560000000000      2.534500000000000      3.464950000000000
H      -1.995760000000000      2.958930000000000      0.695960000000000
H      -1.963360000000000      3.886260000000000      2.241170000000000
H      -0.560690000000000      3.958810000000000      1.131230000000000
H      -1.511950000000000      0.304500000000000      3.321600000000000
H      -2.542150000000000      1.765790000000000      3.478120000000000
H      -2.525890000000000      0.839030000000000      1.937250000000000
H       0.551270000000000      1.654910000000000      3.977090000000000
H       0.925180000000000      3.206510000000000      3.141570000000000
H      -0.521190000000000      3.087100000000000      4.197840000000000
Na     -1.392690000000000     -7.671320000000000      2.730570000000000
C       0.100860000000000     -6.465250000000000      5.279630000000000
C       0.823850000000000     -8.692000000000000      5.119790000000000
O      -0.248260000000000     -7.789330000000000      4.923980000000000
C       0.695400000000000     -5.720540000000000      4.088020000000000
C       0.796370000000000     -9.285360000000001      6.526110000000000
H      -0.827490000000000     -5.940450000000000      5.590060000000000
H       0.786420000000000     -6.422110000000000      6.155680000000000
H       0.707370000000000     -9.519800000000000      4.387920000000000
H       1.814960000000000     -8.231380000000000      4.911580000000000
H      -0.158020000000000     -9.823320000000001      6.703170000000000
H       1.632980000000000    -10.005979999999999      6.637410000000000
H       0.910710000000000     -8.488890000000000      7.289980000000000
H      -0.027640000000000     -5.703950000000000      3.245820000000000
H       0.926020000000000     -4.675670000000000      4.381920000000000
H       1.632490000000000     -6.208030000000000      3.750560000000000
C       1.476330000000000     -8.316269999999999      1.101690000000000
C      -0.394400000000000     -8.368309999999999     -0.374770000000000
O       0.066570000000000     -8.318849999999999      0.964070000000000
C       2.152820000000000     -7.090550000000000      0.487480000000000
C      -0.005120000000000     -9.652130000000000     -1.107080000000000
H       1.684460000000000     -8.282420000000000      2.191650000000000
H       1.927540000000000     -9.264010000000001      0.743240000000000
H      -1.504380000000000     -8.351770000000000     -0.325310000000000
H      -0.110880000000000     -7.460100000000000     -0.945940000000000
H      -0.326060000000000    -10.535510000000000     -0.516890000000000
H      -0.507710000000000     -9.676850000000000     -2.096480000000000
H       1.088650000000000     -9.694780000000000     -1.283250000000000
H       1.696960000000000     -6.163930000000000      0.893040000000000
H       3.232860000000000     -7.102530000000000      0.743940000000000
H       2.069620000000000     -7.098690000000000     -0.618110000000000
Na     -2.147380000000000     -8.763960000000001      6.005100000000000
C      -4.266660000000000     -8.198539999999999      3.505580000000000
C      -3.276290000000000    -10.315189999999999      3.361180000000000
O      -3.127810000000000     -8.980430000000000      3.801480000000000
C      -4.197550000000000     -6.909200000000000      4.314900000000000
C      -3.018010000000000    -10.454160000000000      1.862210000000000
H      -4.274170000000000     -7.926930000000000      2.428300000000000
H      -5.213960000000000     -8.713220000000000      3.783000000000000
H      -2.512710000000000    -10.922610000000001      3.893020000000000
H      -4.262110000000000    -10.745520000000001      3.644780000000000
H      -2.006260000000000    -10.073589999999999      1.612340000000000
H      -3.076460000000000    -11.525210000000000      1.575790000000000
H      -3.776060000000000     -9.894530000000000      1.277130000000000
H      -3.263760000000000     -6.355540000000000      4.078020000000000
H      -5.068130000000000     -6.263700000000000      4.073520000000000
H      -4.213610000000000     -7.137560000000000      5.401050000000000
C      -4.678720000000000     -9.239020000000000      8.090970000000000
C      -3.461860000000000     -7.388690000000000      8.767560000000000
O      -3.631090000000000     -8.358969999999999      7.763090000000000
C      -4.789960000000000    -10.277180000000000      6.982260000000000
C      -2.338360000000000     -6.454590000000000      8.338130000000000
H      -4.466380000000000     -9.774030000000000      9.044050000000000
H      -5.646740000000000     -8.692840000000000      8.150950000000000
H      -4.386380000000000     -6.781040000000000      8.891970000000001
H      -3.168370000000000     -7.863770000000000      9.730689999999999
H      -2.602440000000000     -5.963810000000000      7.376950000000000
H      -2.174400000000000     -5.672780000000000      9.108459999999999
H      -1.396720000000000     -7.029120000000000      8.200150000000001
H      -3.837830000000000    -10.843540000000001      6.892080000000000
H      -5.613810000000000    -10.987209999999999      7.202060000000000
H      -4.998640000000000     -9.774600000000000      6.015190000000000
Mg     -0.425770000000000    -14.149419999999999      2.973590000000000
H      -3.100770000000000    -15.252680000000000      4.231130000000000
C      -2.426490000000000    -17.056270000000001      3.184740000000000
C      -2.557470000000000    -15.547280000000001      3.310520000000000
C      -1.687350000000000    -17.693079999999998      4.369860000000000
H      -3.449330000000000    -17.483360000000001      3.126630000000000
H      -1.891430000000000    -17.300820000000002      2.242510000000000
H      -2.219260000000000    -17.464620000000000      5.319020000000000
H      -1.698660000000000    -18.793189999999999      4.219130000000000
C      -0.227530000000000    -17.249260000000000      4.486030000000000
H      -3.065720000000000    -15.126180000000000      2.416320000000000
H      -0.158780000000000    -16.169200000000000      4.726650000000000
H       0.262820000000000    -17.820000000000000      5.304090000000000
H       0.320060000000000    -17.452610000000000      3.540950000000000
C       0.938210000000000    -13.312840000000000      5.719460000000000
C       2.237090000000000    -12.941170000000000      6.026340000000000
C       2.963830000000000    -13.001250000000001      4.847050000000000
C       2.083840000000000    -13.426650000000000      3.876930000000000
N       0.865450000000000    -13.595870000000000      4.409350000000000
C       2.368260000000000    -13.675400000000000      2.407950000000000
N       1.216700000000000    -14.365390000000000      1.788960000000000
C       1.248040000000000    -14.774060000000000      0.373400000000000
H       2.613530000000000    -12.654450000000001      6.998740000000000
H       0.105850000000000    -13.367960000000000      6.409270000000000
H       4.013230000000000    -12.775309999999999      4.715320000000000
H       2.554930000000000    -12.693849999999999      1.924980000000000
H       3.265440000000000    -14.317819999999999      2.330730000000000
C       2.336530000000000    -15.845800000000001      0.166160000000000
C      -0.114940000000000    -15.390480000000000      0.010760000000000
C       1.509270000000000    -13.565849999999999     -0.542680000000000
H       2.142810000000000    -16.721170000000001      0.824730000000000
H       2.350180000000000    -16.195969999999999     -0.887960000000000
H       3.345340000000000    -15.449809999999999      0.399750000000000
H      -0.931330000000000    -14.648120000000000      0.140110000000000
H      -0.120630000000000    -15.733530000000000     -1.047980000000000
H      -0.333140000000000    -16.266539999999999      0.657470000000000
H       0.724670000000000    -12.794520000000000     -0.394870000000000
H       2.499970000000000    -13.112850000000000     -0.332970000000000
H       1.502560000000000    -13.878710000000000     -1.609220000000000

-C 0
6-31g(d,p)
****
-H 0
6-31g(d,p)
****
-Mg 0
6-31g(d,p)
****
-N 0
6-31+g(d,p)
****
-Na 0
6-31g(d,p)
****
-O 0
6-31+g(d,p)
****


