%chk=lowest10_c1_a2_speciation0_speciationDFT1_speciationDFT37b_rank03_E164.86.chk
%nprocshared=20
%mem=40GB
#p opt=loose PM7/gen scf=xqc 

lowest10_c1_a2_speciation0_speciationDFT1_speciationDFT37b_rank03_E164.86 DFT input

0 1
Mg      0.343630000000000      0.238850000000000     -0.313250000000000
C      -0.934840000000000     -1.802400000000000     -2.402680000000000
C      -1.074710000000000      0.443030000000000     -3.193570000000000
O      -1.179180000000000     -0.442700000000000     -2.099390000000000
C       0.457000000000000     -2.078370000000000     -2.970540000000000
C      -2.233610000000000      0.281150000000000     -4.163390000000000
H      -0.990500000000000     -2.339480000000000     -1.438800000000000
H      -1.741970000000000     -2.241430000000000     -3.021810000000000
H      -1.129590000000000      1.469790000000000     -2.770060000000000
H      -0.090650000000000      0.390380000000000     -3.703160000000000
H      -3.192400000000000      0.319600000000000     -3.604630000000000
H      -2.209930000000000      1.103380000000000     -4.907950000000000
H      -2.149900000000000     -0.686260000000000     -4.697890000000000
H       1.231040000000000     -1.552960000000000     -2.376690000000000
H       0.657470000000000     -3.169590000000000     -2.932490000000000
H       0.517360000000000     -1.752110000000000     -4.027440000000000
H       2.842110000000000      0.566660000000000     -0.935880000000000
C       1.977880000000000      2.567040000000000     -0.850560000000000
C       1.944650000000000      1.115850000000000     -1.283750000000000
C       1.961460000000000      2.674840000000000      0.678550000000000
H       2.898140000000000      3.019320000000000     -1.270050000000000
H       1.085900000000000      3.095660000000000     -1.255480000000000
H       0.985980000000000      2.314140000000000      1.066490000000000
H       2.763630000000000      2.047420000000000      1.120920000000000
C       2.180940000000000      4.116150000000000      1.120840000000000
H       1.841220000000000      1.023720000000000     -2.383340000000000
H       3.180540000000000      4.458060000000000      0.776780000000000
H       1.399790000000000      4.782090000000000      0.697310000000000
H       2.147710000000000      4.178810000000000      2.228780000000000
C      -1.339640000000000      2.132800000000000      2.555480000000000
C      -1.802380000000000      2.180740000000000      1.259970000000000
C      -1.902310000000000      0.876290000000000      0.810940000000000
C      -1.490940000000000      0.062170000000000      1.790440000000000
N      -1.149070000000000      0.798470000000000      2.942570000000000
C      -1.381890000000000     -1.438940000000000      1.723390000000000
N      -0.278600000000000     -1.860870000000000      0.841830000000000
C       0.995620000000000     -2.287360000000000      1.471200000000000
H      -2.022480000000000      3.081270000000000      0.700900000000000
H      -1.136230000000000      2.986420000000000      3.185300000000000
H      -2.234800000000000      0.580780000000000     -0.172320000000000
H      -2.335130000000000     -1.851800000000000      1.329170000000000
H      -1.256100000000000     -1.829290000000000      2.745600000000000
C       0.781220000000000     -3.540670000000000      2.341230000000000
C       1.973970000000000     -2.657180000000000      0.338160000000000
C       1.635390000000000     -1.158430000000000      2.307650000000000
H       0.272330000000000     -4.332680000000000      1.751670000000000
H       1.756150000000000     -3.935500000000000      2.699390000000000
H       0.180280000000000     -3.321070000000000      3.242970000000000
H       2.199020000000000     -1.771350000000000     -0.290470000000000
H       2.939730000000000     -3.031720000000000      0.743990000000000
H       1.539890000000000     -3.444650000000000     -0.314680000000000
H       1.900610000000000     -0.289990000000000      1.667970000000000
H       0.952970000000000     -0.812400000000000      3.107100000000000
H       2.567130000000000     -1.518160000000000      2.797080000000000
Na    -15.741840000000000     -0.943010000000000      7.905740000000000
C     -13.460509999999999     -2.528380000000000      6.164400000000000
C     -12.508390000000000     -1.522220000000000      8.004580000000001
O     -13.346439999999999     -1.321190000000000      6.886720000000000
C     -14.353800000000000     -2.303070000000000      4.953010000000000
C     -12.401780000000000     -0.221560000000000      8.787910000000000
H     -12.465870000000001     -2.862510000000000      5.793840000000000
H     -13.929660000000000     -3.320980000000000      6.790660000000000
H     -12.935110000000000     -2.293710000000000      8.685570000000000
H     -11.481880000000000     -1.810550000000000      7.681830000000000
H     -13.406670000000000      0.097250000000000      9.138070000000001
H     -11.744280000000000     -0.367960000000000      9.670999999999999
H     -11.970079999999999      0.576410000000000      8.147119999999999
H     -13.915419999999999     -1.523470000000000      4.294360000000000
H     -14.449320000000000     -3.247620000000000      4.376500000000000
H     -15.364620000000000     -1.977610000000000      5.278730000000000
Na    -11.904170000000001      0.223430000000000      5.311680000000000
Mg     -5.827330000000000     -2.484180000000000      5.670910000000000
H      -2.780160000000000     -2.857760000000000      5.330660000000000
C      -3.518020000000000     -4.766210000000000      4.559980000000000
C      -3.556510000000000     -3.618820000000000      5.552220000000000
C      -2.175040000000000     -5.483550000000000      4.658050000000000
H      -4.346320000000000     -5.472000000000000      4.788250000000000
H      -3.667920000000000     -4.361640000000000      3.534950000000000
H      -1.358440000000000     -4.763040000000000      4.440740000000000
H      -2.042060000000000     -5.876110000000000      5.689880000000000
C      -2.092610000000000     -6.639200000000000      3.672050000000000
H      -3.474220000000000     -3.982540000000000      6.597990000000000
H      -2.889750000000000     -7.382920000000000      3.885010000000000
H      -2.204550000000000     -6.265180000000000      2.632180000000000
H      -1.103600000000000     -7.132390000000000      3.772770000000000
C      -5.718180000000000      0.501880000000000      6.726090000000000
C      -6.667050000000000      1.512330000000000      6.741030000000000
C      -7.810780000000000      0.995830000000000      6.151260000000000
C      -7.510100000000000     -0.297000000000000      5.788740000000000
N      -6.247310000000000     -0.584840000000000      6.151030000000000
C      -8.408200000000001     -1.305200000000000      5.098710000000000
N      -7.632850000000000     -2.511320000000000      4.739340000000000
C      -8.258540000000000     -3.644020000000000      4.035470000000000
H      -6.542090000000000      2.509080000000000      7.138790000000000
H      -4.708660000000000      0.564320000000000      7.116690000000000
H      -8.752060000000000      1.507710000000000      5.995760000000000
H      -8.812130000000000     -0.839120000000000      4.179420000000000
H      -9.233879999999999     -1.557770000000000      5.795940000000000
C      -8.708060000000000     -3.199130000000000      2.630810000000000
C      -7.217010000000000     -4.767070000000000      3.880970000000000
C      -9.457319999999999     -4.185510000000000      4.833280000000000
H      -7.837680000000000     -2.816850000000000      2.053330000000000
H      -9.154360000000000     -4.049300000000000      2.072310000000000
H      -9.470470000000001     -2.396160000000000      2.687080000000000
H      -6.871680000000000     -5.123160000000000      4.874990000000000
H      -7.652810000000000     -5.633500000000000      3.335030000000000
H      -6.333700000000000     -4.409370000000000      3.309530000000000
H      -9.133789999999999     -4.502570000000000      5.848050000000000
H     -10.245609999999999     -3.413350000000000      4.935280000000000
H      -9.907719999999999     -5.059310000000000      4.315210000000000

-C 0
6-31g(d,p)
****
-H 0
6-31g(d,p)
****
-Mg 0
6-31g(d,p)
****
-N 0
6-31+g(d,p)
****
-Na 0
6-31g(d,p)
****
-O 0
6-31+g(d,p)
****


