%chk=lowest10_c1_a2_speciation7_speciationDFT36_speciationDFT36_rank09_E222.56.chk
%nprocshared=20
%mem=40GB
#p opt=loose PM7/gen scf=xqc 

lowest10_c1_a2_speciation7_speciationDFT36_speciationDFT36_rank09_E222.56 DFT input

0 1
Mg      0.467560000000000      0.103190000000000      0.667720000000000
C      -2.650710000000000      0.447720000000000     -1.401530000000000
C      -1.565980000000000      2.483140000000000     -1.387200000000000
O      -1.929630000000000      1.365340000000000     -0.602140000000000
C      -3.407640000000000     -0.523760000000000     -0.508630000000000
C      -0.711080000000000      3.434970000000000     -0.560670000000000
H      -3.410670000000000      0.955340000000000     -2.036420000000000
H      -1.956110000000000     -0.127790000000000     -2.047700000000000
H      -0.983280000000000      2.174610000000000     -2.280480000000000
H      -2.469390000000000      3.038300000000000     -1.716990000000000
H       0.222980000000000      2.936440000000000     -0.231660000000000
H      -0.441370000000000      4.322050000000000     -1.172060000000000
H      -1.275430000000000      3.772780000000000      0.333390000000000
H      -4.109150000000000      0.026560000000000      0.150350000000000
H      -3.971550000000000     -1.248250000000000     -1.132090000000000
H      -2.714450000000000     -1.091060000000000      0.128170000000000
H      -0.120750000000000      2.741270000000000      2.363840000000000
C       1.831350000000000      1.784040000000000      2.733890000000000
C       0.321650000000000      1.739750000000000      2.529770000000000
C       2.549350000000000      2.422920000000000      1.537300000000000
H       2.030690000000000      2.369520000000000      3.652430000000000
H       2.212370000000000      0.747860000000000      2.874350000000000
H       2.406650000000000      1.801560000000000      0.625320000000000
H       2.133530000000000      3.435010000000000      1.345970000000000
C       4.044380000000000      2.562210000000000      1.815030000000000
H      -0.185000000000000      1.205500000000000      3.359100000000000
H       4.203870000000000      3.198560000000000      2.711960000000000
H       4.505280000000000      1.566570000000000      1.988360000000000
H       4.547160000000000      3.042600000000000      0.949060000000000
C       1.301350000000000      1.022550000000000     -2.242150000000000
C       1.268630000000000      0.349010000000000     -3.450420000000000
C       0.798410000000000     -0.928410000000000     -3.183070000000000
C       0.550280000000000     -0.975810000000000     -1.831000000000000
N       0.847820000000000      0.209110000000000     -1.280240000000000
C       0.050770000000000     -2.150080000000000     -1.008460000000000
N      -0.383420000000000     -1.707700000000000      0.336970000000000
C      -0.527400000000000     -2.706670000000000      1.414880000000000
H       1.556090000000000      0.743970000000000     -4.413770000000000
H       1.621020000000000      2.047180000000000     -2.086320000000000
H       0.644010000000000     -1.728970000000000     -3.893060000000000
H      -0.816040000000000     -2.615550000000000     -1.519340000000000
H       0.886820000000000     -2.873750000000000     -0.948060000000000
C       0.847390000000000     -3.208880000000000      1.890610000000000
C      -1.240190000000000     -2.040670000000000      2.609790000000000
C      -1.391310000000000     -3.887500000000000      0.928760000000000
H       1.452690000000000     -2.366800000000000      2.290220000000000
H       0.720010000000000     -3.962080000000000      2.699000000000000
H       1.411860000000000     -3.692730000000000      1.070020000000000
H      -2.246710000000000     -1.668970000000000      2.325040000000000
H      -1.370720000000000     -2.764500000000000      3.444630000000000
H      -0.649830000000000     -1.181070000000000      2.989960000000000
H      -2.378360000000000     -3.519240000000000      0.573050000000000
H      -0.896030000000000     -4.423300000000000      0.092790000000000
H      -1.563240000000000     -4.617150000000000      1.747830000000000
Na      0.636470000000000      7.722650000000000      8.720920000000000
C       0.111040000000000      4.893020000000000      7.336520000000000
C       2.266640000000000      5.532960000000000      6.668610000000000
O       0.962340000000000      5.970930000000000      6.998530000000000
C       0.183990000000000      4.591670000000000      8.830080000000001
C       2.388680000000000      5.241000000000000      5.175220000000000
H      -0.930130000000000      5.192450000000000      7.092100000000000
H       0.317230000000000      3.977710000000000      6.737200000000000
H       2.973010000000000      6.350870000000000      6.925860000000000
H       2.585730000000000      4.649470000000000      7.264960000000000
H       2.156920000000000      6.148690000000000      4.580600000000000
H       3.427260000000000      4.923660000000000      4.944930000000000
H       1.694090000000000      4.429460000000000      4.879080000000000
H      -0.096840000000000      5.491220000000000      9.416890000000000
H      -0.519320000000000      3.769460000000000      9.076790000000001
H       1.208710000000000      4.278910000000000      9.116370000000000
C       3.262450000000000      6.599880000000000     10.491730000000000
C       2.452360000000000      8.670190000000000     11.354990000000001
O       2.413370000000000      7.718560000000000     10.305770000000001
C       2.900560000000000      5.745350000000000     11.707020000000000
C       3.817570000000000      9.335979999999999     11.526120000000001
H       3.131100000000000      5.954750000000000      9.597720000000001
H       4.332930000000000      6.890300000000000     10.492500000000000
H       1.736480000000000      9.473640000000000     11.077340000000000
H       2.071480000000000      8.251540000000000     12.309360000000000
H       4.157500000000000      9.760800000000000     10.558249999999999
H       3.734820000000000     10.154920000000001     12.271129999999999
H       4.568520000000000      8.612080000000001     11.902040000000000
H       1.832150000000000      5.446790000000000     11.660399999999999
H       3.530010000000000      4.830670000000000     11.709530000000001
H       3.097050000000000      6.291210000000000     12.651719999999999
Na      0.274350000000000      7.414580000000000      5.220010000000000
C      -0.931320000000000      9.801530000000000      7.194660000000000
C       1.303650000000000     10.185320000000001      6.619890000000000
O       0.301640000000000      9.212899999999999      6.837750000000000
C      -2.031430000000000      8.756580000000000      7.058800000000000
C       1.887870000000000     10.710390000000000      7.930470000000000
H      -0.901060000000000     10.127599999999999      8.254400000000000
H      -1.198990000000000     10.653790000000001      6.530160000000000
H       2.124220000000000      9.688549999999999      6.059150000000000
H       0.949290000000000     11.016900000000000      5.971590000000000
H       2.288870000000000      9.869790000000000      8.533260000000000
H       2.716200000000000     11.415089999999999      7.707450000000000
H       1.119400000000000     11.251680000000000      8.519290000000000
H      -1.811170000000000      7.880270000000000      7.705360000000000
H      -3.005970000000000      9.192030000000001      7.364860000000000
H      -2.108050000000000      8.415789999999999      6.005250000000000
C      -1.402020000000000      8.647550000000001      2.641420000000000
C      -2.174270000000000      6.515670000000000      3.112720000000000
O      -1.335610000000000      7.563140000000000      3.535450000000000
C      -0.453460000000000      9.730570000000000      3.138420000000000
C      -2.079160000000000      5.391580000000000      4.135790000000000
H      -1.074300000000000      8.343810000000000      1.621630000000000
H      -2.429830000000000      9.074140000000000      2.616200000000000
H      -3.234950000000000      6.851040000000000      3.067210000000000
H      -1.842810000000000      6.116350000000000      2.127710000000000
H      -2.404310000000000      5.760560000000000      5.132260000000000
H      -2.729780000000000      4.544170000000000      3.835770000000000
H      -1.029860000000000      5.032260000000000      4.211330000000000
H       0.586070000000000      9.339169999999999      3.178190000000000
H      -0.483580000000000     10.608480000000000      2.460470000000000
H      -0.751530000000000     10.054410000000001      4.157140000000000
Mg      0.563660000000000     15.652810000000001     12.035580000000000
C      -2.663700000000000     14.614940000000001     13.903779999999999
C      -3.292640000000000     15.662780000000000     11.948230000000001
O      -2.390080000000000     15.695800000000000     13.034480000000000
C      -2.018410000000000     14.877370000000001     15.255610000000001
C      -2.927880000000000     16.753969999999999     10.951770000000000
H      -3.755110000000000     14.493840000000001     14.089000000000000
H      -2.249250000000000     13.673130000000000     13.485540000000000
H      -3.252470000000000     14.684139999999999     11.421519999999999
H      -4.329650000000000     15.856700000000000     12.298959999999999
H      -1.901170000000000     16.596430000000002     10.563929999999999
H      -3.637840000000000     16.734810000000000     10.097930000000000
H      -2.981250000000000     17.748619999999999     11.441780000000000
H      -2.421710000000000     15.811880000000000     15.697030000000000
H      -2.219110000000000     14.028020000000000     15.941190000000001
H      -0.927500000000000     14.985130000000000     15.149509999999999
H      -0.573830000000000     18.720379999999999     11.530070000000000
C       1.325060000000000     18.179569999999998     10.581099999999999
C       0.371550000000000     18.193310000000000     11.769510000000000
C       0.700190000000000     17.474979999999999      9.370469999999999
H       1.569410000000000     19.231020000000001     10.323840000000001
H       2.260050000000000     17.650250000000000     10.870180000000000
H       0.505890000000000     16.406150000000000      9.608000000000001
H      -0.263700000000000     17.961580000000001      9.108689999999999
C       1.624520000000000     17.553460000000001      8.158700000000000
H       0.854620000000000     18.653089999999999     12.655989999999999
H       1.809730000000000     18.616180000000000      7.892360000000000
H       2.594450000000000     17.056840000000001      8.373849999999999
H       1.149170000000000     17.049920000000000      7.290560000000000
C      -1.125560000000000     13.726450000000000     10.172459999999999
C      -1.379310000000000     12.369429999999999     10.252820000000000
C      -0.714270000000000     11.900150000000000     11.376580000000001
C      -0.104570000000000     12.996990000000000     11.947369999999999
N      -0.355550000000000     14.085480000000000     11.210620000000000
C       0.751300000000000     13.050500000000000     13.202510000000000
N       0.951630000000000     14.455200000000000     13.636089999999999
C       2.060890000000000     14.778589999999999     14.553890000000001
H      -1.981010000000000     11.789790000000000      9.567600000000001
H      -1.490310000000000     14.404260000000001      9.410880000000001
H      -0.692770000000000     10.882600000000000     11.741070000000001
H       0.228710000000000     12.511860000000000     14.019259999999999
H       1.709530000000000     12.542920000000001     12.974670000000000
C       3.411650000000000     14.699880000000000     13.823230000000001
C       1.866000000000000     16.221750000000000     15.062590000000000
C       2.046820000000000     13.829200000000000     15.769310000000001
H       3.430300000000000     15.412100000000001     12.970110000000000
H       4.239350000000000     14.963740000000000     14.517480000000001
H       3.605740000000000     13.680080000000000     13.436940000000000
H       0.903670000000000     16.331900000000001     15.605130000000001
H       2.682070000000000     16.506959999999999     15.762740000000001
H       1.868920000000000     16.941680000000002     14.217320000000001
H       1.066080000000000     13.886590000000000     16.290330000000001
H       2.216340000000000     12.777970000000000     15.457120000000000
H       2.843850000000000     14.102650000000001     16.493040000000001

-C 0
6-31g(d,p)
****
-H 0
6-31g(d,p)
****
-Mg 0
6-31g(d,p)
****
-N 0
6-31+g(d,p)
****
-Na 0
6-31g(d,p)
****
-O 0
6-31+g(d,p)
****


