%chk=lowest10_c1_a2_speciation7_speciationDFT1_speciationDFT1_rank05_E220.30.chk
%nprocshared=20
%mem=40GB
#p opt=loose PM7/gen scf=xqc 

lowest10_c1_a2_speciation7_speciationDFT1_speciationDFT1_rank05_E220.30 DFT input

0 1
Mg     -0.688050000000000     -0.371850000000000     -0.384180000000000
H      -2.017420000000000      1.391280000000000     -2.411210000000000
C      -2.044260000000000      2.727210000000000     -0.673190000000000
C      -2.197300000000000      1.363980000000000     -1.317080000000000
C      -3.104140000000000      3.667610000000000     -1.232790000000000
H      -2.162020000000000      2.625780000000000      0.427830000000000
H      -1.024260000000000      3.116700000000000     -0.886190000000000
H      -2.976960000000000      3.746190000000000     -2.334570000000000
H      -4.112290000000000      3.252010000000000     -1.014280000000000
C      -2.992160000000000      5.053760000000000     -0.617370000000000
H      -3.171160000000000      0.891950000000000     -1.069470000000000
H      -3.133530000000000      4.997920000000000      0.482920000000000
H      -1.996470000000000      5.492930000000000     -0.839660000000000
H      -3.778970000000000      5.705660000000000     -1.049790000000000
C      -0.072810000000000     -2.795140000000000     -2.336220000000000
C       0.859500000000000     -3.817430000000000     -2.257910000000000
C       1.576940000000000     -3.617730000000000     -1.088660000000000
C       1.063320000000000     -2.481270000000000     -0.510280000000000
N       0.067460000000000     -1.997340000000000     -1.267750000000000
C       1.492690000000000     -1.830400000000000      0.790220000000000
N       0.822870000000000     -0.524800000000000      0.955930000000000
C       1.103210000000000      0.325970000000000      2.126770000000000
H       1.000030000000000     -4.620000000000000     -2.967760000000000
H      -0.804170000000000     -2.652690000000000     -3.122800000000000
H       2.386010000000000     -4.224030000000000     -0.704640000000000
H       2.587480000000000     -1.681800000000000      0.760040000000000
H       1.215270000000000     -2.519300000000000      1.613970000000000
C       2.568480000000000      0.799270000000000      2.080530000000000
C       0.189540000000000      1.564300000000000      2.078460000000000
C       0.830960000000000     -0.438720000000000      3.434340000000000
H       2.758380000000000      1.367000000000000      1.143030000000000
H       2.798630000000000      1.456570000000000      2.945250000000000
H       3.270600000000000     -0.057510000000000      2.117210000000000
H      -0.879970000000000      1.267930000000000      2.125940000000000
H       0.399730000000000      2.238510000000000      2.939170000000000
H       0.355450000000000      2.140640000000000      1.143350000000000
H      -0.223500000000000     -0.788730000000000      3.463650000000000
H       1.501520000000000     -1.317090000000000      3.528890000000000
H       1.012000000000000      0.216490000000000      4.313310000000000
Na    -10.540450000000000     -8.721220000000001     -3.719250000000000
C     -11.294729999999999     -5.759640000000000     -4.643520000000000
C     -10.584870000000000     -5.562360000000000     -2.416360000000000
O     -11.249000000000001     -6.370990000000000     -3.368830000000000
C     -10.064190000000000     -6.127390000000000     -5.466540000000000
C     -11.563739999999999     -4.632620000000000     -1.703650000000000
H     -12.193899999999999     -6.141610000000000     -5.171860000000000
H     -11.417109999999999     -4.654660000000000     -4.586170000000000
H     -10.127890000000001     -6.236780000000000     -1.661080000000000
H      -9.746650000000001     -4.979260000000000     -2.858280000000000
H     -12.352130000000001     -5.219740000000000     -1.188380000000000
H     -11.016930000000000     -4.033650000000000     -0.945500000000000
H     -12.042570000000000     -3.939640000000000     -2.425680000000000
H      -9.994570000000000     -7.229420000000000     -5.580670000000000
H     -10.141320000000000     -5.667540000000000     -6.473590000000000
H      -9.141060000000000     -5.755610000000000     -4.977230000000000
C      -7.326410000000000     -7.932530000000000     -3.118660000000000
C      -7.634400000000000    -10.292510000000000     -3.259280000000000
O      -8.239480000000000     -9.014150000000001     -3.174280000000000
C      -6.458790000000000     -7.793250000000000     -4.369860000000000
C      -6.796260000000000    -10.653900000000000     -2.033320000000000
H      -7.938840000000000     -7.009070000000000     -3.050340000000000
H      -6.717850000000000     -7.953670000000000     -2.191480000000000
H      -8.464100000000000    -11.030010000000001     -3.309610000000000
H      -7.067000000000000    -10.421970000000000     -4.204060000000000
H      -7.401730000000000    -10.534070000000000     -1.110370000000000
H      -6.466000000000000    -11.710649999999999     -2.114080000000000
H      -5.888510000000000    -10.020460000000000     -1.971510000000000
H      -7.098590000000000     -7.746270000000000     -5.276010000000000
H      -5.866810000000000     -6.857780000000000     -4.300100000000000
H      -5.744760000000000     -8.636799999999999     -4.456960000000000
Na    -13.326150000000000     -7.015740000000000     -2.370610000000000
C     -13.119790000000000    -10.222980000000000     -3.230570000000000
C     -12.234890000000000     -9.821109999999999     -1.101210000000000
O     -12.483800000000000     -9.286630000000001     -2.385480000000000
C     -13.680949999999999     -9.485939999999999     -4.440240000000000
C     -10.999340000000000    -10.718950000000000     -1.086180000000000
H     -12.383020000000000    -10.970110000000000     -3.595710000000000
H     -13.972659999999999    -10.731980000000000     -2.727820000000000
H     -12.037830000000000     -8.963789999999999     -0.422380000000000
H     -13.122650000000000    -10.345039999999999     -0.683080000000000
H     -10.114870000000000    -10.157030000000001     -1.450660000000000
H     -10.802750000000000    -11.057990000000000     -0.047520000000000
H     -11.153540000000000    -11.614520000000001     -1.721880000000000
H     -12.867150000000001     -8.954240000000000     -4.978390000000000
H     -14.158510000000000    -10.208220000000001     -5.135200000000000
H     -14.441879999999999     -8.744910000000001     -4.117780000000000
C     -16.576329999999999     -7.341270000000000     -1.806010000000000
C     -16.243800000000000     -5.848920000000000     -3.545040000000000
O     -15.629350000000001     -6.766270000000000     -2.673280000000000
C     -15.845409999999999     -8.298209999999999     -0.873680000000000
C     -15.173769999999999     -5.288300000000000     -4.472330000000000
H     -17.070280000000000     -6.562390000000000     -1.182260000000000
H     -17.330249999999999     -7.926120000000000     -2.379160000000000
H     -17.013729999999999     -6.352270000000000     -4.172160000000000
H     -16.688900000000000     -5.001100000000000     -2.977110000000000
H     -14.709519999999999     -6.112850000000000     -5.054620000000000
H     -15.621969999999999     -4.557710000000000     -5.177220000000000
H     -14.383319999999999     -4.779680000000000     -3.878790000000000
H     -15.081090000000000     -7.747620000000000     -0.283710000000000
H     -16.562899999999999     -8.778910000000000     -0.177030000000000
H     -15.337870000000001     -9.087339999999999     -1.466160000000000
Mg     -5.701160000000000     -2.871520000000000      2.056020000000000
H      -3.091840000000000     -4.274110000000000      1.190020000000000
C      -4.170060000000000     -4.203340000000000     -0.710640000000000
C      -4.119130000000000     -4.405720000000000      0.792250000000000
C      -3.305990000000000     -5.255730000000000     -1.399090000000000
H      -5.224540000000000     -4.289980000000000     -1.052970000000000
H      -3.801340000000000     -3.181760000000000     -0.950070000000000
H      -2.257960000000000     -5.164200000000000     -1.038760000000000
H      -3.688620000000000     -6.268490000000000     -1.144210000000000
C      -3.327900000000000     -5.083350000000000     -2.910210000000000
H      -4.538920000000000     -5.391030000000000      1.084790000000000
H      -4.364940000000000     -5.185620000000000     -3.292460000000000
H      -2.932440000000000     -4.084040000000000     -3.188300000000000
H      -2.692180000000000     -5.865480000000000     -3.374530000000000
C      -4.861720000000000     -2.359370000000000      5.070500000000000
C      -5.314140000000000     -1.448750000000000      6.011160000000000
C      -6.291890000000000     -0.682810000000000      5.394050000000000
C      -6.383980000000000     -1.147830000000000      4.100790000000000
N      -5.526740000000000     -2.162520000000000      3.921330000000000
C      -7.299270000000000     -0.648920000000000      2.996580000000000
N      -6.953390000000000     -1.307740000000000      1.718920000000000
C      -7.673750000000000     -0.990010000000000      0.473300000000000
H      -4.973800000000000     -1.354640000000000      7.033320000000000
H      -4.101350000000000     -3.115240000000000      5.221370000000000
H      -6.861920000000000      0.124030000000000      5.833750000000000
H      -7.160890000000000      0.444370000000000      2.897230000000000
H      -8.343400000000001     -0.879960000000000      3.290730000000000
C      -7.417970000000000      0.478860000000000      0.085280000000000
C      -7.136200000000000     -1.892180000000000     -0.652440000000000
C      -9.182610000000000     -1.246270000000000      0.635210000000000
H      -6.327260000000000      0.658210000000000     -0.040240000000000
H      -7.927370000000000      0.728490000000000     -0.869740000000000
H      -7.799270000000000      1.172940000000000      0.861230000000000
H      -7.308870000000000     -2.963590000000000     -0.414740000000000
H      -7.647220000000000     -1.664690000000000     -1.614650000000000
H      -6.045630000000000     -1.734970000000000     -0.796210000000000
H      -9.365550000000001     -2.305480000000000      0.917610000000000
H      -9.617190000000001     -0.588880000000000      1.415770000000000
H      -9.717320000000001     -1.036660000000000     -0.316190000000000

-C 0
6-31g(d,p)
****
-H 0
6-31g(d,p)
****
-Mg 0
6-31g(d,p)
****
-N 0
6-31+g(d,p)
****
-Na 0
6-31g(d,p)
****
-O 0
6-31+g(d,p)
****


