%chk=lowest10_c1_a2_speciation7_speciationDFT1_speciationDFT1_rank04_E219.15.chk
%nprocshared=20
%mem=40GB
#p opt=loose PM7/gen scf=xqc 

lowest10_c1_a2_speciation7_speciationDFT1_speciationDFT1_rank04_E219.15 DFT input

0 1
Mg      0.573830000000000     -0.081630000000000     -0.402790000000000
H       0.560060000000000      1.569630000000000     -2.975560000000000
C      -1.256860000000000      0.382230000000000     -3.252570000000000
C       0.186760000000000      0.537530000000000     -2.814190000000000
C      -1.363480000000000      0.640290000000000     -4.751910000000000
H      -1.600230000000000     -0.648300000000000     -3.015080000000000
H      -1.885940000000000      1.104870000000000     -2.687790000000000
H      -1.005840000000000      1.669600000000000     -4.972990000000000
H      -0.723070000000000     -0.088360000000000     -5.295630000000000
C      -2.798620000000000      0.498080000000000     -5.235600000000000
H       0.845710000000000     -0.211280000000000     -3.301410000000000
H      -3.169640000000000     -0.530510000000000     -5.040360000000000
H      -3.452460000000000      1.231000000000000     -4.716950000000000
H      -2.833610000000000      0.692970000000000     -6.327470000000000
C       3.124990000000000      1.279240000000000      0.896250000000000
C       3.554780000000000      1.366680000000000      2.211960000000000
C       2.604810000000000      0.716510000000000      2.984170000000000
C       1.633170000000000      0.274120000000000      2.117910000000000
N       1.966620000000000      0.613520000000000      0.857590000000000
C       0.368470000000000     -0.492650000000000      2.446780000000000
N      -0.485010000000000     -0.610880000000000      1.246360000000000
C      -1.791410000000000     -1.290670000000000      1.300390000000000
H       4.455990000000000      1.843640000000000      2.567250000000000
H       3.639050000000000      1.677760000000000      0.027440000000000
H       2.615740000000000      0.587360000000000      4.059770000000000
H      -0.177990000000000      0.060580000000000      3.234520000000000
H       0.669110000000000     -1.494540000000000      2.817320000000000
C      -2.748380000000000     -0.502840000000000      2.215140000000000
C      -2.393020000000000     -1.327480000000000     -0.116250000000000
C      -1.634800000000000     -2.734690000000000      1.809210000000000
H      -2.869530000000000      0.536460000000000      1.837710000000000
H      -3.748680000000000     -0.984650000000000      2.247930000000000
H      -2.364260000000000     -0.454430000000000      3.253890000000000
H      -1.737990000000000     -1.898500000000000     -0.808290000000000
H      -3.392280000000000     -1.816330000000000     -0.104160000000000
H      -2.518920000000000     -0.299340000000000     -0.518250000000000
H      -0.941250000000000     -3.301360000000000      1.151220000000000
H      -1.237480000000000     -2.751310000000000      2.844600000000000
H      -2.617860000000000     -3.253020000000000      1.818350000000000
Na     -5.695950000000000     -6.391450000000000      1.814060000000000
C      -5.289180000000000     -9.327000000000000      0.593970000000000
C      -7.602830000000000     -8.963410000000000      0.469630000000000
O      -6.414920000000000     -8.721060000000000      1.199490000000000
C      -4.635320000000000     -8.377829999999999     -0.405010000000000
C      -8.294100000000000    -10.237120000000001      0.949780000000000
H      -4.553180000000000     -9.553210000000000      1.394320000000000
H      -5.530550000000000    -10.301890000000000      0.113150000000000
H      -8.286500000000000     -8.105380000000000      0.643570000000000
H      -7.431570000000000     -9.004709999999999     -0.629280000000000
H      -8.539389999999999    -10.162690000000000      2.029360000000000
H      -9.238060000000001    -10.380660000000001      0.383510000000000
H      -7.643620000000000    -11.121010000000000      0.786850000000000
H      -4.334650000000000     -7.436790000000000      0.100990000000000
H      -3.731370000000000     -8.856900000000000     -0.835070000000000
H      -5.335950000000000     -8.136730000000000     -1.230260000000000
C      -7.049600000000000     -5.208190000000000     -1.067450000000000
C      -6.418500000000000     -3.444740000000000      0.405800000000000
O      -6.636680000000000     -4.834730000000000      0.235660000000000
C      -6.012830000000000     -4.911910000000000     -2.152070000000000
C      -7.682980000000000     -2.603060000000000      0.233820000000000
H      -7.187270000000000     -6.309680000000000     -1.049490000000000
H      -8.045299999999999     -4.789950000000000     -1.320700000000000
H      -6.077990000000000     -3.304490000000000      1.454190000000000
H      -5.585460000000000     -3.074550000000000     -0.225690000000000
H      -8.486910000000000     -2.984380000000000      0.897950000000000
H      -7.460970000000000     -1.549300000000000      0.503250000000000
H      -8.029840000000000     -2.615020000000000     -0.819120000000000
H      -5.037390000000000     -5.369420000000000     -1.884250000000000
H      -6.358930000000000     -5.342310000000000     -3.114030000000000
H      -5.887960000000000     -3.820340000000000     -2.300120000000000
Na     -6.932900000000000     -9.302360000000000      3.483100000000000
C      -5.496450000000000     -6.585520000000000      4.816590000000000
C      -7.784520000000000     -6.295110000000000      4.425200000000000
O      -6.601860000000000     -6.952400000000000      4.017240000000000
C      -4.367700000000000     -7.578620000000000      4.572660000000000
C      -7.847370000000000     -4.862030000000000      3.901430000000000
H      -5.133550000000000     -5.575800000000000      4.527760000000000
H      -5.735110000000000     -6.616370000000000      5.903540000000000
H      -8.638540000000001     -6.854300000000000      3.986440000000000
H      -7.929990000000000     -6.331220000000000      5.527770000000000
H      -7.755680000000000     -4.856900000000000      2.795770000000000
H      -8.821310000000000     -4.408900000000000      4.181390000000000
H      -7.036730000000000     -4.245330000000000      4.340260000000000
H      -4.087660000000000     -7.585970000000000      3.497520000000000
H      -3.478300000000000     -7.294820000000000      5.173550000000000
H      -4.687300000000000     -8.599850000000000      4.867630000000000
C      -6.805120000000000    -10.831230000000000      6.427770000000000
C      -5.463320000000000    -11.974390000000000      4.928840000000000
O      -6.238950000000000    -10.819470000000001      5.139460000000000
C      -7.656710000000000     -9.578830000000000      6.584810000000000
C      -4.858760000000000    -11.892360000000000      3.533880000000000
H      -7.466730000000000    -11.716379999999999      6.564440000000000
H      -6.010170000000000    -10.807940000000000      7.206610000000000
H      -4.628390000000000    -12.030379999999999      5.663200000000000
H      -6.095200000000000    -12.889780000000000      4.978660000000000
H      -4.220490000000000    -10.986660000000001      3.451930000000000
H      -4.237910000000000    -12.790070000000000      3.333080000000000
H      -5.665690000000000    -11.832920000000000      2.771650000000000
H      -8.463360000000000     -9.567230000000000      5.820330000000000
H      -8.115270000000001     -9.551580000000000      7.594920000000000
H      -7.026270000000000     -8.675200000000000      6.452610000000000
Mg    -13.282940000000000     -8.181740000000000     -3.779400000000000
H     -12.633410000000000     -5.572560000000000     -5.361350000000000
C     -10.626840000000000     -6.358140000000000     -4.998860000000000
C     -12.050940000000001     -6.069850000000000     -4.558380000000000
C      -9.905820000000000     -5.048570000000000     -5.309300000000000
H     -10.098540000000000     -6.901510000000000     -4.185330000000000
H     -10.653650000000001     -7.008040000000000     -5.900820000000000
H     -10.450740000000000     -4.509800000000000     -6.115000000000000
H      -9.890180000000001     -4.412270000000000     -4.397370000000000
C      -8.475270000000000     -5.301260000000000     -5.762860000000000
H     -12.072110000000000     -5.470590000000000     -3.624130000000000
H      -7.907970000000000     -5.827090000000000     -4.966860000000000
H      -8.468470000000000     -5.918060000000000     -6.686510000000000
H      -7.983040000000000     -4.329440000000000     -5.975230000000000
C     -16.437480000000001     -7.954110000000000     -3.968860000000000
C     -17.442660000000000     -8.901000000000000     -3.857400000000000
C     -16.822900000000001    -10.121940000000000     -3.636370000000000
C     -15.468310000000001     -9.871880000000001     -3.637030000000000
N     -15.250470000000000     -8.561159999999999     -3.827870000000000
C     -14.336209999999999    -10.865570000000000     -3.447890000000000
N     -13.037890000000001    -10.198570000000000     -3.683620000000000
C     -11.764910000000000    -10.932499999999999     -3.582330000000000
H     -18.506730000000001     -8.722460000000000     -3.926140000000000
H     -16.570580000000000     -6.892640000000000     -4.138470000000000
H     -17.304600000000001    -11.081189999999999     -3.500600000000000
H     -14.467620000000000    -11.686710000000000     -4.178750000000000
H     -14.396550000000000    -11.260460000000000     -2.412920000000000
C     -11.703780000000000    -12.023949999999999     -4.667800000000000
C     -10.609470000000000     -9.943379999999999     -3.818290000000000
C     -11.605200000000000    -11.558000000000000     -2.185400000000000
H     -11.813560000000001    -11.568190000000000     -5.676430000000000
H     -10.733060000000000    -12.562840000000000     -4.629950000000000
H     -12.510590000000001    -12.772520000000000     -4.532490000000000
H     -10.616440000000001     -9.140840000000001     -3.050000000000000
H      -9.628299999999999    -10.465570000000000     -3.765510000000000
H     -10.695550000000001     -9.470430000000000     -4.820200000000000
H     -11.651009999999999    -10.770379999999999     -1.402780000000000
H     -12.402979999999999    -12.303140000000001     -1.988620000000000
H     -10.628360000000001    -12.081630000000001     -2.103240000000000

-C 0
6-31g(d,p)
****
-H 0
6-31g(d,p)
****
-Mg 0
6-31g(d,p)
****
-N 0
6-31+g(d,p)
****
-Na 0
6-31g(d,p)
****
-O 0
6-31+g(d,p)
****


