%chk=lowest10_c1_a2_speciation0_speciationDFT2_speciationDFT36_rank01_E181.24.chk
%nprocshared=20
%mem=40GB
#p opt=loose PM7/gen scf=xqc 

lowest10_c1_a2_speciation0_speciationDFT2_speciationDFT36_rank01_E181.24 DFT input

0 1
Mg     -0.293490000000000      0.401190000000000      0.667320000000000
C       0.967590000000000     -2.471740000000000     -1.401870000000000
C      -1.337350000000000     -2.549650000000000     -1.388350000000000
O      -0.187770000000000     -2.305900000000000     -0.602840000000000
C       2.187140000000000     -2.641510000000000     -0.508670000000000
C      -2.589110000000000     -2.284640000000000     -0.562370000000000
H       0.907980000000000     -3.383780000000000     -2.036650000000000
H       1.118810000000000     -1.582490000000000     -2.048050000000000
H      -1.361180000000000     -1.890910000000000     -2.281670000000000
H      -1.366680000000000     -3.609730000000000     -1.717790000000000
H      -2.624370000000000     -1.226530000000000     -0.233120000000000
H      -3.492210000000000     -2.494760000000000     -1.173680000000000
H      -2.599290000000000     -2.942210000000000      0.331590000000000
H       2.061150000000000     -3.524180000000000      0.150310000000000
H       3.096580000000000     -2.767730000000000     -1.131990000000000
H       2.331700000000000     -1.757470000000000      0.128110000000000
H      -2.280230000000000     -1.424320000000000      2.360230000000000
C      -2.432590000000000      0.743260000000000      2.736150000000000
C      -1.636180000000000     -0.539710000000000      2.530170000000000
C      -3.341960000000000      1.046260000000000      1.537260000000000
H      -3.042570000000000      0.618900000000000      3.653500000000000
H      -1.727010000000000      1.592120000000000      2.879200000000000
H      -2.731110000000000      1.234000000000000      0.626400000000000
H      -4.009870000000000      0.179980000000000      1.343680000000000
C      -4.211010000000000      2.270480000000000      1.814320000000000
H      -0.920640000000000     -0.712640000000000      3.359550000000000
H      -4.843740000000000      2.086820000000000      2.708450000000000
H      -3.580370000000000      3.167580000000000      1.991530000000000
H      -4.877090000000000      2.466390000000000      0.947550000000000
C      -1.506750000000000      0.663400000000000     -2.242380000000000
C      -0.906900000000000      0.971730000000000     -3.450440000000000
C       0.434550000000000      1.203270000000000     -3.183180000000000
C       0.599360000000000      1.012140000000000     -1.830960000000000
N      -0.575190000000000      0.677450000000000     -1.280330000000000
C       1.866270000000000      1.166900000000000     -1.008310000000000
N       1.700040000000000      0.569970000000000      0.337250000000000
C       2.637130000000000      0.944840000000000      1.415230000000000
H      -1.392700000000000      1.023120000000000     -4.413870000000000
H      -2.553790000000000      0.427930000000000     -2.086440000000000
H       1.204990000000000      1.469740000000000     -3.893080000000000
H       2.702720000000000      0.648790000000000     -1.519030000000000
H       2.074890000000000      2.252730000000000     -0.947960000000000
C       2.384940000000000      2.386580000000000      1.891230000000000
C       2.416860000000000     -0.005470000000000      2.610130000000000
C       4.091670000000000      0.786840000000000      0.929030000000000
H       1.353640000000000      2.490410000000000      2.292350000000000
H       3.102340000000000      2.651820000000000      2.698330000000000
H       2.521230000000000      3.117540000000000      1.070770000000000
H       2.598200000000000     -1.063010000000000      2.325310000000000
H       3.109000000000000      0.243390000000000      3.444960000000000
H       1.377290000000000      0.076000000000000      2.990360000000000
H       4.266140000000000     -0.252150000000000      0.573310000000000
H       4.308120000000000      1.483570000000000      0.093010000000000
H       4.809630000000000      1.002620000000000      1.748050000000000
Na     -4.827880000000000      5.272710000000000      8.764130000000000
C      -1.840700000000000      4.978590000000000      7.432600000000000
C      -3.461410000000000      4.334570000000000      5.927050000000000
O      -2.981580000000000      4.168740000000000      7.244220000000000
C      -1.323220000000000      4.789200000000000      8.851319999999999
C      -4.701660000000000      3.473130000000000      5.735050000000000
H      -1.026110000000000      4.684600000000000      6.731980000000000
H      -2.095870000000000      6.055160000000000      7.306340000000000
H      -3.753140000000000      5.393710000000000      5.742570000000000
H      -2.699580000000000      4.003940000000000      5.184730000000000
H      -5.493770000000000      3.776860000000000      6.452140000000000
H      -5.088470000000000      3.598920000000000      4.702070000000000
H      -4.453870000000000      2.402710000000000      5.898490000000000
H      -1.049100000000000      3.725970000000000      9.019679999999999
H      -0.424190000000000      5.421920000000000      9.010210000000001
H      -2.103700000000000      5.082780000000000      9.585369999999999
Na     -2.035690000000000      1.711700000000000      7.256150000000000
Mg      2.172680000000000      8.028280000000001      8.300480000000000
H       4.330620000000000      9.688110000000000      9.733359999999999
C       5.242580000000000      7.692350000000000      9.791499999999999
C       4.054280000000000      8.633649999999999      9.936840000000000
C       5.794290000000000      7.619190000000000      8.358250000000000
H       6.039460000000000      8.013550000000000     10.494130000000000
H       4.910900000000000      6.670730000000000     10.077819999999999
H       6.654000000000000      6.914150000000000      8.363080000000000
H       5.021040000000000      7.214560000000000      7.671180000000000
C       6.276620000000000      8.964620000000000      7.818020000000000
H       3.609520000000000      8.557810000000000     10.950020000000000
H       5.426830000000000      9.669240000000000      7.703810000000000
H       7.037810000000000      9.405030000000000      8.495300000000000
H       6.730950000000000      8.816860000000000      6.815370000000000
C       2.871160000000000      5.581270000000000      6.400270000000000
C       2.322430000000000      5.162760000000000      5.199360000000000
C       1.317010000000000      6.062310000000000      4.878980000000000
C       1.309140000000000      7.001450000000000      5.886570000000000
N       2.237460000000000      6.694290000000000      6.802770000000000
C       0.409240000000000      8.215850000000000      6.019060000000000
N       0.899860000000000      9.082990000000001      7.111710000000000
C       0.210180000000000     10.340890000000000      7.449610000000000
H       2.617980000000000      4.297270000000000      4.622900000000000
H       3.675760000000000      5.100010000000000      6.941330000000000
H       0.676700000000000      6.041310000000000      4.007950000000000
H      -0.619550000000000      7.855260000000000      6.222470000000000
H       0.437120000000000      8.777790000000000      5.066490000000000
C      -1.267980000000000     10.086180000000001      7.795200000000000
C       0.907000000000000     10.969010000000001      8.670719999999999
C       0.318920000000000     11.323589999999999      6.267390000000000
H      -1.349980000000000      9.377470000000001      8.646820000000000
H      -1.769570000000000     11.037620000000000      8.076079999999999
H      -1.814760000000000      9.665730000000000      6.926420000000000
H       1.980930000000000     11.160450000000001      8.457400000000000
H       0.429160000000000     11.937889999999999      8.938700000000001
H       0.841860000000000     10.295170000000001      9.551650000000000
H       1.387610000000000     11.511530000000000      6.022730000000000
H      -0.181120000000000     10.923489999999999      5.362210000000000
H      -0.160510000000000     12.294549999999999      6.514980000000000

-C 0
6-31g(d,p)
****
-H 0
6-31g(d,p)
****
-Mg 0
6-31g(d,p)
****
-N 0
6-31+g(d,p)
****
-Na 0
6-31g(d,p)
****
-O 0
6-31+g(d,p)
****


