%chk=lowest10_c1_a2_speciation7_speciationDFT38_speciationDFT96_rank05_E227.69.chk
%nprocshared=20
%mem=40GB
#p opt=loose PM7/gen scf=xqc 

lowest10_c1_a2_speciation7_speciationDFT38_speciationDFT96_rank05_E227.69 DFT input

0 1
Mg     -0.024020000000000      0.324690000000000      0.377450000000000
C       0.774000000000000     -2.843650000000000      1.651010000000000
C      -1.128870000000000     -2.835030000000000      0.211480000000000
O       0.027370000000000     -2.155890000000000      0.664090000000000
C       1.410930000000000     -4.135310000000000      1.147700000000000
C      -2.182810000000000     -3.038130000000000      1.296980000000000
H       1.601000000000000     -2.162490000000000      1.946720000000000
H       0.188440000000000     -3.020980000000000      2.573140000000000
H      -1.594130000000000     -2.184630000000000     -0.555650000000000
H      -0.878680000000000     -3.775890000000000     -0.319170000000000
H      -2.405930000000000     -2.074070000000000      1.799120000000000
H      -3.113880000000000     -3.423600000000000      0.831750000000000
H      -1.840880000000000     -3.780080000000000      2.045020000000000
H       2.012370000000000     -3.944660000000000      0.236290000000000
H       2.077860000000000     -4.539140000000000      1.938120000000000
H       0.634770000000000     -4.895200000000000      0.930350000000000
H       1.196190000000000      0.438340000000000      3.084820000000000
C      -0.855090000000000     -0.084000000000000      3.664280000000000
C       0.145110000000000      0.675300000000000      2.819870000000000
C      -0.702730000000000      0.326510000000000      5.118990000000000
H      -1.883150000000000      0.139580000000000      3.311870000000000
H      -0.676090000000000     -1.171220000000000      3.553760000000000
H       0.332740000000000      0.100680000000000      5.455250000000000
H      -0.884380000000000      1.419660000000000      5.209380000000000
C      -1.691620000000000     -0.423250000000000      5.996880000000000
H      -0.049590000000000      1.767780000000000      2.823660000000000
H      -2.732210000000000     -0.199300000000000      5.678540000000000
H      -1.513310000000000     -1.517580000000000      5.925380000000000
H      -1.556580000000000     -0.101310000000000      7.049160000000000
C       2.146300000000000      2.079630000000000     -3.656190000000000
C       1.157400000000000      3.027760000000000     -3.713650000000000
C      -0.026120000000000      2.431490000000000     -3.294120000000000
C       0.240370000000000      1.157870000000000     -2.971000000000000
N       1.595480000000000      0.874520000000000     -3.201060000000000
C      -0.722730000000000      0.088080000000000     -2.493440000000000
N      -1.312860000000000      0.280060000000000     -1.158660000000000
C      -2.466660000000000      1.145180000000000     -0.869070000000000
H       1.296530000000000      4.051960000000000     -4.035840000000000
H       3.186900000000000      2.216890000000000     -3.915180000000000
H      -0.979210000000000      2.925830000000000     -3.259290000000000
H      -0.125350000000000     -0.847540000000000     -2.421430000000000
H      -1.500380000000000     -0.104810000000000     -3.249350000000000
C      -3.394620000000000      1.258700000000000     -2.081880000000000
C      -3.248160000000000      0.489060000000000      0.285620000000000
C      -1.990000000000000      2.526890000000000     -0.377400000000000
H      -3.715350000000000      0.241410000000000     -2.396560000000000
H      -4.293170000000000      1.856610000000000     -1.829720000000000
H      -2.877630000000000      1.746440000000000     -2.928560000000000
H      -2.599370000000000      0.376080000000000      1.177490000000000
H      -4.126000000000000      1.104940000000000      0.577890000000000
H      -3.604390000000000     -0.523530000000000      0.000070000000000
H      -1.400900000000000      2.433880000000000      0.562100000000000
H      -1.347500000000000      3.035830000000000     -1.109340000000000
H      -2.860820000000000      3.183960000000000     -0.167490000000000
C       2.966290000000000      1.128040000000000     -0.239190000000000
C       2.661480000000000     -1.105770000000000     -0.937260000000000
O       2.241950000000000     -0.074210000000000     -0.066090000000000
C       2.038170000000000      2.329130000000000     -0.044000000000000
C       3.952610000000000     -1.736420000000000     -0.458930000000000
H       3.761940000000000      1.171900000000000      0.531450000000000
H       3.429370000000000      1.222140000000000     -1.245070000000000
H       1.868540000000000     -1.879630000000000     -0.958930000000000
H       2.766990000000000     -0.781090000000000     -1.985420000000000
H       3.829560000000000     -2.104110000000000      0.580170000000000
H       4.209680000000000     -2.584230000000000     -1.126900000000000
H       4.765810000000000     -0.983730000000000     -0.497170000000000
H       1.228450000000000      2.335390000000000     -0.796290000000000
H       1.568910000000000      2.311400000000000      0.960140000000000
H       2.614070000000000      3.271500000000000     -0.149130000000000
Na      0.106610000000000     -4.279580000000000     -9.008050000000001
C      -0.876930000000000     -7.313460000000000     -9.242279999999999
C       0.020420000000000     -7.120610000000000     -7.084190000000000
O       0.107570000000000     -6.700670000000000     -8.432440000000000
C      -2.155660000000000     -6.482100000000000     -9.263840000000000
C       0.883550000000000     -8.354799999999999     -6.834950000000000
H      -0.478710000000000     -7.368560000000000    -10.277659999999999
H      -1.092170000000000     -8.362700000000000     -8.938570000000000
H       0.399180000000000     -6.292630000000000     -6.447690000000000
H      -1.027530000000000     -7.306820000000000     -6.759240000000000
H       1.945360000000000     -8.142260000000000     -7.077750000000000
H       0.817390000000000     -8.640120000000000     -5.764340000000000
H       0.534860000000000     -9.208190000000000     -7.452200000000000
H      -1.940560000000000     -5.459360000000000     -9.638230000000000
H      -2.897480000000000     -6.960770000000000     -9.936130000000000
H      -2.593160000000000     -6.410730000000000     -8.247220000000000
C      -1.972520000000000     -3.606870000000000     -6.440230000000000
C      -1.127520000000000     -1.608650000000000     -7.430110000000000
O      -1.043960000000000     -3.020230000000000     -7.335300000000000
C      -3.433170000000000     -3.404000000000000     -6.844790000000000
C      -0.801540000000000     -0.888140000000000     -6.122640000000000
H      -1.783880000000000     -4.700660000000000     -6.464760000000000
H      -1.785860000000000     -3.298070000000000     -5.391320000000000
H      -0.358980000000000     -1.296510000000000     -8.169140000000001
H      -2.097940000000000     -1.278010000000000     -7.854680000000000
H       0.182860000000000     -1.224590000000000     -5.734300000000000
H      -0.762920000000000      0.206560000000000     -6.303440000000000
H      -1.588970000000000     -1.077650000000000     -5.367910000000000
H      -3.594500000000000     -3.752990000000000     -7.886420000000000
H      -4.083160000000000     -3.991250000000000     -6.163850000000000
H      -3.728990000000000     -2.339380000000000     -6.755000000000000
Na      2.408470000000000     -6.973080000000000     -9.060190000000000
C       2.684180000000000     -4.009670000000000    -10.561120000000001
C       3.332600000000000     -3.929790000000000     -8.313800000000001
O       2.506420000000000     -4.559320000000000     -9.272030000000001
C       2.061700000000000     -4.952340000000000    -11.583360000000001
C       2.755810000000000     -2.592200000000000     -7.854480000000000
H       2.162760000000000     -3.031340000000000    -10.634679999999999
H       3.759640000000000     -3.897600000000000    -10.825880000000000
H       3.377620000000000     -4.600420000000000     -7.429030000000000
H       4.381480000000000     -3.819630000000000     -8.667909999999999
H       1.732160000000000     -2.736610000000000     -7.451780000000000
H       3.397640000000000     -2.169240000000000     -7.053500000000000
H       2.722040000000000     -1.867520000000000     -8.693330000000000
H       0.982960000000000     -5.101090000000000    -11.362629999999999
H       2.163810000000000     -4.525150000000000    -12.603059999999999
H       2.572800000000000     -5.937290000000000    -11.556300000000000
C       5.132210000000000     -8.046870000000000    -10.620710000000001
C       3.313690000000000     -9.307100000000000    -11.302020000000001
O       3.733640000000000     -8.188470000000001    -10.559340000000001
C       5.524590000000000     -6.842000000000000     -9.776170000000000
C       1.795260000000000     -9.387230000000001    -11.219530000000001
H       5.642440000000000     -8.942890000000000    -10.200500000000000
H       5.462680000000000     -7.857640000000000    -11.666650000000001
H       3.595210000000000     -9.199960000000001    -12.373810000000001
H       3.733700000000000    -10.245580000000000    -10.874960000000000
H       1.345290000000000     -8.462199999999999    -11.639419999999999
H       1.426100000000000    -10.260930000000000    -11.795669999999999
H       1.476060000000000     -9.492000000000001    -10.159870000000000
H       5.208320000000000     -6.995340000000000     -8.721750000000000
H       6.623840000000000     -6.693790000000000     -9.806220000000000
H       5.029060000000000     -5.929710000000000    -10.168060000000001
Mg     -7.295770000000000    -10.251650000000000     -6.015100000000000
C      -6.943760000000000     -9.316929999999999     -2.807750000000000
C      -6.331600000000000    -11.613239999999999     -3.057700000000000
O      -6.953740000000000    -10.476780000000000     -3.622940000000000
C      -5.568090000000000     -8.912720000000000     -2.271270000000000
C      -7.076320000000000    -12.155609999999999     -1.843560000000000
H      -7.279340000000000     -8.482760000000001     -3.455930000000000
H      -7.692020000000000     -9.397060000000000     -1.992950000000000
H      -6.347050000000000    -12.404480000000000     -3.832420000000000
H      -5.256170000000000    -11.441760000000000     -2.852890000000000
H      -6.599710000000000    -13.104870000000000     -1.521240000000000
H      -8.137020000000000    -12.354120000000000     -2.102210000000000
H      -7.029920000000000    -11.434360000000000     -1.003800000000000
H      -4.839280000000000     -8.829610000000001     -3.097950000000000
H      -5.204060000000000     -9.643520000000001     -1.521210000000000
H      -5.642290000000000     -7.923810000000000     -1.775440000000000
H      -9.736610000000001    -11.375870000000001     -5.797250000000000
C      -8.677830000000000    -12.688720000000000     -7.192780000000000
C      -9.051800000000000    -11.294510000000001     -6.665670000000000
C      -7.886130000000000    -13.565210000000000     -6.202700000000000
H      -9.605639999999999    -13.220420000000001     -7.492240000000000
H      -8.042690000000000    -12.557550000000001     -8.094950000000001
H      -7.661430000000000    -14.534570000000000     -6.701480000000000
H      -6.917570000000000    -13.080390000000000     -5.963360000000000
C      -8.639120000000000    -13.871440000000000     -4.908080000000000
H      -9.551750000000000    -10.711180000000001     -7.464320000000000
H      -8.835270000000000    -12.941160000000000     -4.340140000000000
H      -9.600970000000000    -14.380290000000000     -5.126580000000000
H      -8.022100000000000    -14.540950000000000     -4.269350000000000
C      -3.570390000000000    -11.409030000000000     -5.284040000000000
C      -4.241120000000000    -11.746510000000001     -6.436880000000000
C      -4.857890000000000    -10.602270000000001     -6.908730000000000
C      -4.589540000000000     -9.605350000000000     -6.059870000000000
N      -3.753150000000000    -10.041980000000001     -5.014730000000000
C      -5.135520000000000     -8.206870000000000     -6.170810000000000
N      -6.601370000000000     -8.261490000000000     -6.084470000000000
C      -7.381240000000000     -7.021270000000000     -6.315560000000000
H      -4.288030000000000    -12.735040000000000     -6.875000000000000
H      -2.998640000000000    -12.085850000000001     -4.665200000000000
H      -5.486320000000000    -10.532430000000000     -7.786070000000000
H      -4.799780000000000     -7.774070000000000     -7.132860000000000
H      -4.732950000000000     -7.603750000000000     -5.329750000000000
C      -7.238710000000000     -6.546130000000000     -7.775270000000000
C      -8.864170000000000     -7.312250000000000     -6.033290000000000
C      -6.916390000000000     -5.895070000000000     -5.362810000000000
H      -7.582220000000000     -7.334590000000000     -8.476990000000001
H      -7.847330000000000     -5.630750000000000     -7.946530000000000
H      -6.188500000000000     -6.284850000000000     -8.017920000000000
H      -9.010109999999999     -7.634420000000000     -4.980810000000000
H      -9.481040000000000     -6.401070000000000     -6.203000000000000
H      -9.238530000000001     -8.114820000000000     -6.702600000000000
H      -7.014680000000000     -6.210800000000000     -4.302480000000000
H      -5.859040000000000     -5.617060000000000     -5.548930000000000
H      -7.528170000000000     -4.977650000000000     -5.507820000000000

-C 0
6-31g(d,p)
****
-H 0
6-31g(d,p)
****
-Mg 0
6-31g(d,p)
****
-N 0
6-31+g(d,p)
****
-Na 0
6-31g(d,p)
****
-O 0
6-31+g(d,p)
****


