%chk=lowest10_c1_a2_speciation7_speciationDFT1_speciationDFT36_rank06_E222.93.chk
%nprocshared=20
%mem=40GB
#p opt=loose PM7/gen scf=xqc 

lowest10_c1_a2_speciation7_speciationDFT1_speciationDFT36_rank06_E222.93 DFT input

0 1
Mg      0.569260000000000      0.532650000000000     -0.231870000000000
C      -2.542780000000000     -0.538040000000000      1.587560000000000
C      -3.174300000000000      0.502390000000000     -0.371570000000000
O      -2.271130000000000      0.541610000000000      0.714980000000000
C      -1.898030000000000     -0.276210000000000      2.940310000000000
C      -2.831560000000000      1.606220000000000     -1.363580000000000
H      -3.633340000000000     -0.660830000000000      1.772160000000000
H      -2.131090000000000     -1.480890000000000      1.171900000000000
H      -3.124490000000000     -0.472230000000000     -0.900880000000000
H      -4.214050000000000      0.672470000000000     -0.020490000000000
H      -1.809570000000000      1.464820000000000     -1.769710000000000
H      -3.552790000000000      1.587840000000000     -2.207890000000000
H      -2.888170000000000      2.595720000000000     -0.864140000000000
H      -2.290770000000000      0.663710000000000      3.378010000000000
H      -2.104910000000000     -1.122970000000000      3.627080000000000
H      -0.807760000000000     -0.177190000000000      2.841560000000000
H      -0.500240000000000      3.491450000000000     -0.738050000000000
C       1.412880000000000      2.993950000000000     -1.714520000000000
C       0.465560000000000      2.995420000000000     -0.520760000000000
C       0.791350000000000      2.298840000000000     -2.933810000000000
H       1.649170000000000      4.049090000000000     -1.959030000000000
H       2.351270000000000      2.464610000000000     -1.435090000000000
H       0.609290000000000      1.223360000000000     -2.714230000000000
H      -0.178370000000000      2.778460000000000     -3.185710000000000
C       1.712120000000000      2.409410000000000     -4.146990000000000
H       0.947830000000000      3.425140000000000      0.380740000000000
H       1.887400000000000      3.479060000000000     -4.391630000000000
H       2.687510000000000      1.918040000000000     -3.944800000000000
H       1.240950000000000      1.920610000000000     -5.025880000000000
C      -1.075550000000000     -1.397840000000000     -2.122640000000000
C      -1.321680000000000     -2.756830000000000     -2.038500000000000
C      -0.657310000000000     -3.214240000000000     -0.909960000000000
C      -0.048320000000000     -2.116770000000000     -0.346550000000000
N      -0.318130000000000     -1.029490000000000     -1.081700000000000
C       0.833080000000000     -2.061970000000000      0.888790000000000
N       1.027160000000000     -0.664180000000000      1.339670000000000
C       2.139610000000000     -0.348430000000000      2.258240000000000
H      -1.914830000000000     -3.345090000000000     -2.722640000000000
H      -1.443590000000000     -0.724360000000000     -2.888950000000000
H      -0.628680000000000     -4.228090000000000     -0.535850000000000
H       0.351800000000000     -2.629930000000000      1.710130000000000
H       1.794900000000000     -2.537020000000000      0.613830000000000
C       3.495260000000000     -0.430560000000000      1.534220000000000
C       1.954260000000000      1.092220000000000      2.777630000000000
C       2.116680000000000     -1.307830000000000      3.464820000000000
H       3.533910000000000      0.298040000000000      0.695870000000000
H       4.320710000000000     -0.193690000000000      2.241070000000000
H       3.682250000000000     -1.444760000000000      1.131080000000000
H       0.993220000000000      1.206190000000000      3.321450000000000
H       2.773840000000000      1.367700000000000      3.477930000000000
H       1.963150000000000      1.817060000000000      1.937110000000000
H       1.131110000000000     -1.255730000000000      3.977030000000000
H       2.287900000000000     -2.355390000000000      3.141530000000000
H       2.907650000000000     -1.042970000000000      4.197680000000000
Na    -11.688890000000001     -9.369809999999999     -3.306510000000000
C     -12.443590000000000     -6.409030000000000     -4.232120000000000
C     -11.733760000000000     -6.211810000000000     -2.004930000000000
O     -12.397950000000000     -7.020370000000000     -2.957420000000000
C     -11.212960000000001     -6.776660000000000     -5.055060000000000
C     -12.712510000000000     -5.281920000000000     -1.292260000000000
H     -13.342680000000000     -6.791080000000000     -4.760550000000000
H     -12.566100000000000     -5.304070000000000     -4.174750000000000
H     -11.276899999999999     -6.886270000000000     -1.249610000000000
H     -10.895450000000000     -5.628840000000000     -2.446830000000000
H     -13.500909999999999     -5.868920000000000     -0.776850000000000
H     -12.165580000000000     -4.682890000000000     -0.534240000000000
H     -13.191340000000000     -4.588980000000000     -2.014320000000000
H     -11.143300000000000     -7.878670000000000     -5.169330000000000
H     -11.290010000000001     -6.316670000000000     -6.062050000000000
H     -10.289880000000000     -6.404910000000000     -4.565630000000000
C      -8.475289999999999     -8.581750000000000     -2.707290000000000
C      -8.783250000000001    -10.941770000000000     -2.847950000000000
O      -9.388299999999999     -9.663399999999999     -2.763010000000000
C      -7.607530000000000     -8.442470000000000     -3.958380000000000
C      -7.945030000000000    -11.303070000000000     -1.622040000000000
H      -9.087780000000000     -7.658320000000000     -2.639090000000000
H      -7.866860000000000     -8.602840000000000     -1.780020000000000
H      -9.612980000000000    -11.679240000000000     -2.898140000000000
H      -8.215940000000000    -11.071289999999999     -3.792790000000000
H      -8.550390000000000    -11.183030000000000     -0.699050000000000
H      -7.614900000000000    -12.359870000000001     -1.702680000000000
H      -7.037210000000000    -10.669710000000000     -1.560440000000000
H      -8.247210000000001     -8.395619999999999     -4.864620000000000
H      -7.015640000000000     -7.506940000000000     -3.888590000000000
H      -6.893430000000000     -9.285980000000000     -4.045300000000000
Na    -14.475009999999999     -7.665220000000000     -1.960150000000000
C     -14.268459999999999    -10.872090000000000     -2.819230000000000
C     -13.383440000000000    -10.470120000000000     -0.689900000000000
O     -13.632389999999999     -9.935739999999999     -1.974190000000000
C     -14.829660000000001    -10.135059999999999     -4.028910000000000
C     -12.148000000000000    -11.368140000000000     -0.674810000000000
H     -13.531730000000000    -11.619240000000000     -3.184390000000000
H     -15.121320000000001    -11.381050000000000     -2.316420000000000
H     -13.186210000000001     -9.612760000000000     -0.011180000000000
H     -14.271250000000000    -10.993890000000000     -0.271670000000000
H     -11.263420000000000    -10.806380000000001     -1.039250000000000
H     -11.951499999999999    -11.707150000000000      0.363880000000000
H     -12.302300000000001    -12.263730000000001     -1.310460000000000
H     -14.015900000000000     -9.603230000000000     -4.567010000000000
H     -15.307100000000000    -10.857360000000000     -4.723930000000000
H     -15.590710000000000     -9.394130000000001     -3.706480000000000
C     -17.724900000000002     -7.990500000000000     -1.394580000000000
C     -17.392379999999999     -6.498120000000000     -3.133640000000000
O     -16.777960000000000     -7.415420000000000     -2.261820000000000
C     -16.993890000000000     -8.947440000000000     -0.462310000000000
C     -16.322289999999999     -5.937560000000000     -4.060910000000000
H     -18.218889999999998     -7.211680000000000     -0.770790000000000
H     -18.478790000000000     -8.575379999999999     -1.967750000000000
H     -18.162289999999999     -7.001490000000000     -3.760770000000000
H     -17.837499999999999     -5.650280000000000     -2.565760000000000
H     -15.858029999999999     -6.762150000000000     -4.643140000000000
H     -16.770399999999999     -5.206980000000000     -4.765860000000000
H     -15.531840000000001     -5.428950000000000     -3.467340000000000
H     -16.229590000000002     -8.396830000000000      0.127690000000000
H     -17.711300000000001     -9.428280000000001      0.234320000000000
H     -16.486270000000001     -9.736480000000000     -1.054850000000000
Mg     -6.849010000000000     -3.520370000000000      2.467260000000000
H      -4.241060000000000     -4.922100000000000      1.601720000000000
C      -5.319270000000000     -4.851560000000000     -0.299010000000000
C      -5.268250000000000     -5.053990000000000      1.203830000000000
C      -4.455630000000000     -5.904320000000000     -0.987320000000000
H      -6.373730000000000     -4.938150000000000     -0.641380000000000
H      -4.950270000000000     -3.830020000000000     -0.538410000000000
H      -3.407720000000000     -5.813180000000000     -0.626710000000000
H      -4.838580000000000     -6.917000000000000     -0.732480000000000
C      -4.477070000000000     -5.731890000000000     -2.498450000000000
H      -5.688060000000000     -6.039300000000000      1.496410000000000
H      -5.514040000000000     -5.833740000000000     -2.880990000000000
H      -4.080710000000000     -4.732730000000000     -2.776300000000000
H      -3.841870000000000     -6.514570000000000     -2.962630000000000
C      -6.009610000000000     -3.008260000000000      5.481680000000000
C      -6.462350000000000     -2.097770000000000      6.422290000000000
C      -7.440230000000000     -1.332040000000000      5.805160000000000
C      -7.532090000000000     -1.797120000000000      4.511920000000000
N      -6.674640000000000     -2.811490000000000      4.332440000000000
C      -8.447690000000000     -1.298520000000000      3.407840000000000
N      -8.101800000000001     -1.957270000000000      2.130180000000000
C      -8.822319999999999     -1.639540000000000      0.884660000000000
H      -6.122220000000000     -2.003640000000000      7.444540000000000
H      -5.249200000000000     -3.764030000000000      5.632610000000000
H      -8.010560000000000     -0.525410000000000      6.244800000000000
H      -8.309690000000000     -0.205210000000000      3.308520000000000
H      -9.491690000000000     -1.530010000000000      3.702110000000000
C      -8.566620000000000     -0.170720000000000      0.496860000000000
C      -8.284829999999999     -2.541530000000000     -0.241260000000000
C     -10.331170000000000     -1.895710000000000      1.046680000000000
H      -7.475880000000000      0.008350000000000      0.371390000000000
H      -9.076110000000000      0.079090000000000     -0.458060000000000
H      -8.947780000000000      0.523280000000000      1.272940000000000
H      -8.457599999999999     -3.612950000000000     -0.003790000000000
H      -8.795900000000000     -2.313800000000000     -1.203410000000000
H      -7.194250000000000     -2.384330000000000     -0.385040000000000
H     -10.514170000000000     -2.954920000000000      1.329000000000000
H     -10.765630000000000     -1.238310000000000      1.827300000000000
H     -10.865930000000001     -1.685950000000000      0.095340000000000

-C 0
6-31g(d,p)
****
-H 0
6-31g(d,p)
****
-Mg 0
6-31g(d,p)
****
-N 0
6-31+g(d,p)
****
-Na 0
6-31g(d,p)
****
-O 0
6-31+g(d,p)
****


