%chk=lowest10_c1_a2_speciation0_speciationDFT36_speciationDFT37b_rank03_E165.08.chk
%nprocshared=20
%mem=40GB
#p opt=loose PM7/gen scf=xqc 

lowest10_c1_a2_speciation0_speciationDFT36_speciationDFT37b_rank03_E165.08 DFT input

0 1
Mg      0.132670000000000     -0.532130000000000      0.133100000000000
C      -1.105810000000000     -0.961600000000000     -2.773520000000000
C       1.039420000000000     -1.986770000000000     -2.588870000000000
O       0.218800000000000     -0.879240000000000     -2.284550000000000
C      -1.894530000000000     -2.161490000000000     -2.250030000000000
C       1.411200000000000     -2.025830000000000     -4.061980000000000
H      -1.621590000000000     -0.060550000000000     -2.395730000000000
H      -1.147420000000000     -0.873500000000000     -3.877170000000000
H       1.977230000000000     -1.849190000000000     -2.007330000000000
H       0.617190000000000     -2.950460000000000     -2.236960000000000
H       1.807580000000000     -1.035520000000000     -4.370390000000000
H       2.189260000000000     -2.799530000000000     -4.226300000000000
H       0.521400000000000     -2.279860000000000     -4.672130000000000
H      -1.759370000000000     -2.268780000000000     -1.155460000000000
H      -2.973500000000000     -2.010850000000000     -2.463410000000000
H      -1.568390000000000     -3.091610000000000     -2.755650000000000
H      -0.552510000000000     -2.556300000000000      1.605850000000000
C       1.619440000000000     -2.419220000000000      1.747000000000000
C       0.330790000000000     -2.420160000000000      0.950670000000000
C       1.647370000000000     -1.241730000000000      2.728500000000000
H       1.679370000000000     -3.385720000000000      2.285220000000000
H       2.484450000000000     -2.326180000000000      1.052620000000000
H       1.695060000000000     -0.287480000000000      2.163520000000000
H       0.726780000000000     -1.231210000000000      3.349150000000000
C       2.850860000000000     -1.341070000000000      3.657400000000000
H       0.344160000000000     -3.195790000000000      0.159130000000000
H       2.774070000000000     -2.271340000000000      4.260060000000000
H       3.797110000000000     -1.357850000000000      3.076500000000000
H       2.865670000000000     -0.471990000000000      4.348200000000000
C       2.400800000000000      2.276000000000000      1.404650000000000
C       2.697450000000000      1.529070000000000      0.287300000000000
C       1.570430000000000      1.523420000000000     -0.514220000000000
C       0.611440000000000      2.222060000000000      0.104930000000000
N       1.086410000000000      2.757210000000000      1.319290000000000
C      -0.798810000000000      2.433860000000000     -0.380260000000000
N      -1.588030000000000      1.191580000000000     -0.305030000000000
C      -2.526450000000000      1.027570000000000      0.832430000000000
H       3.636620000000000      1.026370000000000      0.094870000000000
H       3.066120000000000      2.459360000000000      2.235010000000000
H       1.485070000000000      1.018170000000000     -1.464060000000000
H      -0.768260000000000      2.776850000000000     -1.436730000000000
H      -1.257240000000000      3.241290000000000      0.211900000000000
C      -3.627000000000000      2.105440000000000      0.791550000000000
C      -3.204630000000000     -0.349070000000000      0.680740000000000
C      -1.798360000000000      1.056980000000000      2.193700000000000
H      -4.113830000000000      2.114620000000000     -0.206730000000000
H      -4.400750000000000      1.897940000000000      1.561640000000000
H      -3.230860000000000      3.116070000000000      1.006510000000000
H      -2.456440000000000     -1.164940000000000      0.751450000000000
H      -3.959470000000000     -0.518500000000000      1.480130000000000
H      -3.713700000000000     -0.430110000000000     -0.303790000000000
H      -1.081760000000000      0.212750000000000      2.280000000000000
H      -1.245390000000000      2.005050000000000      2.335620000000000
H      -2.529680000000000      0.969720000000000      3.027110000000000
Na      8.612629999999999      2.870950000000000     11.756990000000000
C       6.013080000000000      2.616750000000000      9.769209999999999
C       5.409250000000000      3.593670000000000     11.765770000000000
O       6.077610000000000      2.500290000000000     11.174680000000000
C       6.723460000000000      1.427580000000000      9.138299999999999
C       5.490220000000000      3.471230000000000     13.280400000000000
H       4.955780000000000      2.606950000000000      9.417800000000000
H       6.529240000000000      3.542130000000000      9.425940000000001
H       5.889790000000000      4.556070000000000     11.475989999999999
H       4.332860000000000      3.591940000000000     11.486370000000001
H       6.551260000000000      3.473970000000000     13.608610000000001
H       4.965380000000000      4.328030000000000     13.754060000000001
H       5.008670000000000      2.527330000000000     13.613440000000001
H       6.232120000000000      0.480600000000000      9.447520000000001
H       6.681750000000000      1.508950000000000      8.031430000000000
H       7.787470000000000      1.405090000000000      9.456720000000001
Na      4.498910000000000      0.458280000000000     11.706600000000000
Mg      0.389150000000000      5.658520000000000      8.618930000000001
C      -1.492820000000000      2.293430000000000      8.302230000000000
C      -2.051960000000000      3.221080000000000     10.338360000000000
O      -0.996110000000000      2.988200000000000      9.429040000000001
C      -0.333820000000000      1.665860000000000      7.543170000000000
C      -1.546760000000000      4.069280000000000     11.496960000000000
H      -2.173400000000000      1.460870000000000      8.591609999999999
H      -2.027020000000000      2.993790000000000      7.625690000000000
H      -2.890690000000000      3.764410000000000      9.850379999999999
H      -2.422310000000000      2.260370000000000     10.757730000000000
H      -1.175540000000000      5.046780000000000     11.128100000000000
H      -2.372700000000000      4.250970000000000     12.216939999999999
H      -0.721800000000000      3.543070000000000     12.021210000000000
H       0.212320000000000      0.956050000000000      8.197880000000000
H      -0.714100000000000      1.127820000000000      6.649990000000000
H       0.372360000000000      2.440180000000000      7.204770000000000
H       1.458740000000000      4.917710000000000     11.663380000000000
C       1.876060000000000      6.932720000000000     10.910690000000001
C       1.801480000000000      5.421600000000000     10.737230000000000
C       0.504210000000000      7.522420000000000     11.259510000000001
H       2.602400000000000      7.151270000000000     11.720780000000000
H       2.240170000000000      7.389880000000000      9.963910000000000
H      -0.208770000000000      7.351510000000000     10.423320000000000
H       0.104940000000000      7.031520000000000     12.172700000000001
C       0.608210000000000      9.021730000000000     11.523339999999999
H       2.781070000000000      5.017050000000000     10.414210000000001
H       1.299100000000000      9.209190000000000     12.373060000000001
H       0.984790000000000      9.551990000000000     10.622909999999999
H      -0.391910000000000      9.426959999999999     11.785410000000001
C      -2.723160000000000      6.202260000000000      8.834550000000000
C      -3.730100000000000      6.149150000000000      7.885730000000000
C      -3.130120000000000      5.791100000000000      6.687290000000000
C      -1.790740000000000      5.620030000000000      6.958510000000000
N      -1.561500000000000      5.876890000000000      8.256300000000000
C      -0.677120000000000      5.227780000000000      6.004180000000000
N       0.548750000000000      4.858810000000000      6.753030000000000
C       1.849130000000000      4.851760000000000      6.056260000000000
H      -4.778770000000000      6.351060000000000      8.049450000000000
H      -2.842430000000000      6.455710000000000      9.882230000000000
H      -3.619240000000000      5.658260000000000      5.730900000000000
H      -0.999130000000000      4.342980000000000      5.416860000000000
H      -0.506610000000000      6.084640000000000      5.321910000000000
C       2.325050000000000      6.287540000000000      5.777570000000000
C       2.886100000000000      4.163760000000000      6.968250000000000
C       1.750000000000000      4.050600000000000      4.741670000000000
H       2.429910000000000      6.850760000000000      6.730070000000000
H       3.314140000000000      6.272330000000000      5.269510000000000
H       1.616410000000000      6.830640000000000      5.122010000000000
H       2.591660000000000      3.118010000000000      7.196710000000000
H       3.884490000000000      4.133510000000000      6.478680000000000
H       2.989960000000000      4.709680000000000      7.929530000000000
H       1.400970000000000      3.014830000000000      4.946570000000000
H       1.037950000000000      4.525930000000000      4.035630000000000
H       2.739460000000000      3.994280000000000      4.241040000000000

-C 0
6-31g(d,p)
****
-H 0
6-31g(d,p)
****
-Mg 0
6-31g(d,p)
****
-N 0
6-31+g(d,p)
****
-Na 0
6-31g(d,p)
****
-O 0
6-31+g(d,p)
****


