%chk=lowest10_c1_a2_speciation0_speciationDFT37b_speciationDFT38_rank03_E162.17.chk
%nprocshared=20
%mem=40GB
#p opt=loose PM7/gen scf=xqc 

lowest10_c1_a2_speciation0_speciationDFT37b_speciationDFT38_rank03_E162.17 DFT input

0 1
Mg      0.889000000000000     -0.419250000000000     -0.017580000000000
C      -1.567240000000000      0.715300000000000      1.854190000000000
C      -0.416450000000000      2.537630000000000      0.813840000000000
O      -0.415450000000000      1.171610000000000      1.167090000000000
C      -2.906500000000000      1.101090000000000      1.222550000000000
C      -0.324360000000000      3.450230000000000      2.027080000000000
H      -1.519310000000000     -0.390840000000000      1.824110000000000
H      -1.527040000000000      1.001410000000000      2.923370000000000
H       0.489230000000000      2.707860000000000      0.200920000000000
H      -1.259280000000000      2.799240000000000      0.144100000000000
H      -0.202350000000000      4.497900000000000      1.682480000000000
H       0.548790000000000      3.168230000000000      2.651370000000000
H      -1.248640000000000      3.375120000000000      2.632380000000000
H      -2.928580000000000      0.826390000000000      0.155330000000000
H      -3.095540000000000      2.187800000000000      1.332330000000000
H      -3.724390000000000      0.550990000000000      1.729270000000000
H       2.872250000000000     -0.048600000000000      1.724020000000000
C       3.799010000000000      0.482010000000000     -0.192180000000000
C       2.894820000000000     -0.409520000000000      0.676130000000000
C       3.341410000000000      1.947330000000000     -0.334390000000000
H       4.822550000000000      0.462160000000000      0.236070000000000
H       3.836830000000000      0.049880000000000     -1.215180000000000
H       4.076640000000000      2.481580000000000     -0.977880000000000
H       2.361990000000000      1.985510000000000     -0.852350000000000
C       3.252190000000000      2.696870000000000      0.995260000000000
H       3.256090000000000     -1.455410000000000      0.654710000000000
H       2.495690000000000      2.230040000000000      1.654670000000000
H       4.235200000000000      2.699230000000000      1.509870000000000
H       2.945210000000000      3.749930000000000      0.811000000000000
C      -0.994670000000000      1.904650000000000     -2.574850000000000
C       0.234160000000000      1.345430000000000     -2.840900000000000
C       0.173250000000000      0.015050000000000     -2.464550000000000
C      -1.043080000000000     -0.221010000000000     -1.960760000000000
N      -1.846640000000000      0.934490000000000     -2.029920000000000
C      -1.508540000000000     -1.517180000000000     -1.351720000000000
N      -0.647780000000000     -1.841320000000000     -0.207320000000000
C      -0.810910000000000     -3.151940000000000      0.466920000000000
H       1.089010000000000      1.869020000000000     -3.247150000000000
H      -1.271050000000000      2.936390000000000     -2.739380000000000
H       0.988920000000000     -0.696370000000000     -2.515990000000000
H      -1.471920000000000     -2.308370000000000     -2.123260000000000
H      -2.553690000000000     -1.382640000000000     -1.001930000000000
C      -0.394850000000000     -4.302140000000000     -0.470960000000000
C       0.088610000000000     -3.180590000000000      1.713510000000000
C      -2.276740000000000     -3.362910000000000      0.917310000000000
H       0.664330000000000     -4.186060000000000     -0.781530000000000
H      -0.510690000000000     -5.283270000000000      0.039910000000000
H      -1.029900000000000     -4.336590000000000     -1.379050000000000
H      -0.206500000000000     -2.387620000000000      2.432700000000000
H       0.010350000000000     -4.162960000000000      2.231770000000000
H       1.149650000000000     -3.020630000000000      1.429130000000000
H      -2.602170000000000     -2.547180000000000      1.597520000000000
H      -2.968540000000000     -3.392710000000000      0.049860000000000
H      -2.388810000000000     -4.327240000000000      1.460160000000000
Na      6.830450000000000     -4.304220000000000     10.127649999999999
C       6.919260000000000     -1.526770000000000      8.382460000000000
C       4.847210000000000     -2.518120000000000      8.213080000000000
O       6.238070000000000     -2.732750000000000      8.109290000000000
C       8.417640000000000     -1.761770000000000      8.252730000000000
C       4.116300000000000     -3.822280000000000      7.929100000000000
H       6.634610000000000     -0.735260000000000      7.651740000000000
H       6.716960000000000     -1.186430000000000      9.423590000000001
H       4.572020000000000     -2.190540000000000      9.241780000000000
H       4.509240000000000     -1.773600000000000      7.459290000000000
H       4.420120000000000     -4.599160000000000      8.662409999999999
H       3.019930000000000     -3.662170000000000      8.008430000000001
H       4.353590000000000     -4.177520000000000      6.903750000000000
H       8.664970000000000     -2.093580000000000      7.221880000000000
H       8.965850000000000     -0.820170000000000      8.467910000000000
H       8.746259999999999     -2.540980000000000      8.973039999999999
Na      6.609140000000000     -3.089480000000000      5.523730000000000
Mg      2.626090000000000      2.669680000000000      8.284039999999999
C       4.523280000000000      3.646010000000000     10.695460000000001
C       2.578410000000000      2.536280000000000     11.510800000000000
O       3.126710000000000      3.445340000000000     10.577909999999999
C       5.358150000000000      2.379940000000000     10.496729999999999
C       2.538320000000000      3.113720000000000     12.918509999999999
H       4.801900000000000      4.336830000000000      9.876060000000001
H       4.786990000000000      4.179840000000000     11.630220000000000
H       1.528660000000000      2.352640000000000     11.194450000000000
H       3.066100000000000      1.540900000000000     11.480940000000000
H       2.024420000000000      4.097900000000000     12.903720000000000
H       1.981850000000000      2.421520000000000     13.583750000000000
H       3.565250000000000      3.234130000000000     13.317679999999999
H       5.034850000000000      1.842600000000000      9.583860000000000
H       6.426980000000000      2.659910000000000     10.390120000000000
H       5.269130000000000      1.705590000000000     11.370920000000000
H       3.277410000000000      0.225070000000000      7.602790000000000
C       1.141890000000000      0.173580000000000      8.010600000000000
C       2.557210000000000      0.583800000000000      8.363870000000000
C       0.717560000000000      0.813640000000000      6.684480000000000
H       1.112790000000000     -0.933200000000000      7.943960000000000
H       0.449010000000000      0.513880000000000      8.812099999999999
H       0.668880000000000      1.917330000000000      6.803180000000000
H       1.456550000000000      0.579960000000000      5.888670000000000
C      -0.644370000000000      0.294480000000000      6.243540000000000
H       2.845220000000000      0.210370000000000      9.367690000000000
H      -0.585990000000000     -0.802080000000000      6.074700000000000
H      -1.414650000000000      0.507770000000000      7.014420000000000
H      -0.939820000000000      0.785210000000000      5.293690000000000
C      -0.280970000000000      4.590880000000000      6.614660000000000
C      -0.227250000000000      4.377250000000000      7.979360000000000
C       1.032570000000000      4.766810000000000      8.391550000000001
C       1.677370000000000      5.168770000000000      7.301050000000000
N       0.830530000000000      5.069650000000000      6.185470000000000
C       3.097930000000000      5.667490000000000      7.227170000000000
N       4.064560000000000      4.586000000000000      7.489330000000000
C       4.752190000000000      3.986250000000000      6.318290000000000
H      -1.014950000000000      3.969050000000000      8.601730000000000
H      -1.122870000000000      4.387410000000000      5.971650000000000
H       1.413850000000000      4.740640000000000      9.399490000000000
H       3.232700000000000      6.464580000000000      7.988870000000000
H       3.257290000000000      6.129940000000000      6.239180000000000
C       5.653090000000000      5.026940000000000      5.622090000000000
C       5.658300000000000      2.850100000000000      6.832710000000000
C       3.750680000000000      3.378100000000000      5.312670000000000
H       6.355530000000000      5.475220000000000      6.356990000000000
H       6.246510000000000      4.547140000000000      4.814300000000000
H       5.071260000000000      5.840370000000000      5.148670000000000
H       5.054650000000000      2.050360000000000      7.307480000000000
H       6.229420000000000      2.385120000000000      5.998660000000000
H       6.385760000000000      3.233100000000000      7.580670000000000
H       3.151580000000000      2.574800000000000      5.791640000000000
H       3.057900000000000      4.144390000000000      4.914070000000000
H       4.290610000000000      2.932330000000000      4.448660000000000

-C 0
6-31g(d,p)
****
-H 0
6-31g(d,p)
****
-Mg 0
6-31g(d,p)
****
-N 0
6-31+g(d,p)
****
-Na 0
6-31g(d,p)
****
-O 0
6-31+g(d,p)
****


