%chk=lowest10_c1_a2_speciation0_speciationDFT2_speciationDFT36_rank07_E181.85.chk
%nprocshared=20
%mem=40GB
#p opt=loose PM7/gen scf=xqc 

lowest10_c1_a2_speciation0_speciationDFT2_speciationDFT36_rank07_E181.85 DFT input

0 1
Mg     -0.293350000000000      0.401190000000000      0.667260000000000
C       0.967590000000000     -2.471740000000000     -1.401880000000000
C      -1.337350000000000     -2.549640000000000     -1.388360000000000
O      -0.187770000000000     -2.305890000000000     -0.602840000000000
C       2.187140000000000     -2.641520000000000     -0.508680000000000
C      -2.589120000000000     -2.284640000000000     -0.562380000000000
H       0.907970000000000     -3.383780000000000     -2.036650000000000
H       1.118810000000000     -1.582480000000000     -2.048050000000000
H      -1.361180000000000     -1.890900000000000     -2.281670000000000
H      -1.366680000000000     -3.609720000000000     -1.717810000000000
H      -2.624390000000000     -1.226530000000000     -0.233130000000000
H      -3.492210000000000     -2.494760000000000     -1.173690000000000
H      -2.599290000000000     -2.942220000000000      0.331590000000000
H       2.061150000000000     -3.524180000000000      0.150310000000000
H       3.096580000000000     -2.767730000000000     -1.132000000000000
H       2.331710000000000     -1.757480000000000      0.128100000000000
H      -2.280110000000000     -1.424400000000000      2.360190000000000
C      -2.432230000000000      0.743270000000000      2.735660000000000
C      -1.635960000000000     -0.539820000000000      2.529850000000000
C      -3.342570000000000      1.045640000000000      1.537310000000000
H      -3.041800000000000      0.618860000000000      3.653210000000000
H      -1.726690000000000      1.592250000000000      2.878410000000000
H      -2.732440000000000      1.232360000000000      0.625710000000000
H      -4.010920000000000      0.179440000000000      1.345180000000000
C      -4.210210000000000      2.271110000000000      1.813510000000000
H      -0.920440000000000     -0.712620000000000      3.359280000000000
H      -4.840040000000000      2.093790000000000      2.711720000000000
H      -3.576630000000000      3.166950000000000      1.983130000000000
H      -4.878470000000000      2.465190000000000      0.948020000000000
C      -1.506720000000000      0.663400000000000     -2.242370000000000
C      -0.906890000000000      0.971720000000000     -3.450450000000000
C       0.434570000000000      1.203240000000000     -3.183190000000000
C       0.599410000000000      1.012120000000000     -1.830980000000000
N      -0.575160000000000      0.677430000000000     -1.280340000000000
C       1.866340000000000      1.166870000000000     -1.008330000000000
N       1.700200000000000      0.569910000000000      0.337240000000000
C       2.637220000000000      0.944780000000000      1.415340000000000
H      -1.392700000000000      1.023110000000000     -4.413870000000000
H      -2.553770000000000      0.427940000000000     -2.086430000000000
H       1.205000000000000      1.469710000000000     -3.893100000000000
H       2.702790000000000      0.648800000000000     -1.519080000000000
H       2.074920000000000      2.252720000000000     -0.947960000000000
C       2.384620000000000      2.386530000000000      1.891480000000000
C       2.416900000000000     -0.005680000000000      2.610100000000000
C       4.091760000000000      0.786860000000000      0.929140000000000
H       1.352750000000000      2.489720000000000      2.291270000000000
H       3.100500000000000      2.652940000000000      2.699970000000000
H       2.521320000000000      3.117280000000000      1.070860000000000
H       2.598240000000000     -1.063200000000000      2.325190000000000
H       3.109030000000000      0.243080000000000      3.444960000000000
H       1.377320000000000      0.075760000000000      2.990300000000000
H       4.266210000000000     -0.252120000000000      0.573340000000000
H       4.308150000000000      1.483570000000000      0.093100000000000
H       4.809730000000000      1.002610000000000      1.748130000000000
Na      3.579010000000000      7.381220000000000     13.686000000000000
C       0.873070000000000      8.158720000000001     11.996860000000000
C       1.761210000000000     10.029909999999999     13.005480000000000
O       1.348860000000000      8.695900000000000     13.212600000000000
C       0.421460000000000      6.723990000000000     12.228529999999999
C       2.287520000000000     10.599570000000000     14.315630000000001
H      -0.004810000000000      8.735110000000001     11.625299999999999
H       1.681260000000000      8.139939999999999     11.231080000000000
H       2.586720000000000     10.077920000000001     12.259140000000000
H       0.903510000000000     10.661619999999999     12.680160000000001
H       3.154680000000000     10.003520000000000     14.671480000000001
H       2.613280000000000     11.650589999999999     14.163990000000000
H       1.490960000000000     10.579319999999999     15.089499999999999
H      -0.392810000000000      6.696590000000000     12.983639999999999
H       0.044780000000000      6.291240000000000     11.277410000000000
H       1.272780000000000      6.109280000000000     12.591120000000000
Na     -0.814240000000000      8.937590000000000     14.696660000000000
Mg     -0.671730000000000      6.032900000000000      7.608130000000000
H      -1.435270000000000      3.951430000000000      5.472000000000000
C      -3.306100000000000      4.074960000000000      6.613490000000000
C      -1.788180000000000      3.992100000000000      6.522490000000000
C      -3.885290000000000      5.370190000000000      6.021230000000000
H      -3.742160000000000      3.190470000000000      6.103980000000000
H      -3.590240000000000      4.039260000000000      7.687640000000000
H      -4.990650000000000      5.328180000000000      6.133740000000000
H      -3.514640000000000      6.249840000000000      6.589180000000000
C      -3.558210000000000      5.566350000000000      4.541970000000000
H      -1.405150000000000      3.109950000000000      7.074910000000000
H      -2.467580000000000      5.711320000000000      4.396450000000000
H      -3.900880000000000      4.692190000000000      3.951330000000000
H      -4.073880000000000      6.476280000000000      4.168350000000000
C      -2.734440000000000      8.167450000000001      8.737510000000000
C      -2.586900000000000      9.504440000000001      9.067920000000001
C      -1.270130000000000      9.844760000000001      8.797470000000001
C      -0.677060000000000      8.707820000000000      8.294980000000001
N      -1.562360000000000      7.702100000000000      8.276990000000000
C       0.755840000000000      8.535890000000000      7.827090000000000
N       0.902290000000000      7.235930000000000      7.137740000000000
C       2.198260000000000      6.818350000000000      6.573710000000000
H      -3.351090000000000     10.158420000000000      9.465260000000001
H      -3.637430000000000      7.578130000000000      8.832430000000000
H      -0.804120000000000     10.810280000000001      8.938090000000001
H       1.413210000000000      8.595510000000001      8.718260000000001
H       0.993590000000000      9.353030000000000      7.120180000000000
C       3.294070000000000      6.806340000000000      7.654670000000000
C       2.047760000000000      5.397370000000000      5.999380000000000
C       2.592700000000000      7.768640000000000      5.426340000000000
H       3.012430000000000      6.122960000000000      8.484059999999999
H       4.259340000000000      6.462350000000000      7.223890000000000
H       3.457980000000000      7.822290000000000      8.068910000000001
H       1.257340000000000      5.368560000000000      5.218400000000000
H       3.002310000000000      5.058110000000000      5.538310000000000
H       1.773520000000000      4.676270000000000      6.798850000000000
H       1.802790000000000      7.771930000000000      4.643220000000000
H       2.727470000000000      8.807340000000000      5.790320000000000
H       3.548680000000000      7.449260000000000      4.959470000000000

-C 0
6-31g(d,p)
****
-H 0
6-31g(d,p)
****
-Mg 0
6-31g(d,p)
****
-N 0
6-31+g(d,p)
****
-Na 0
6-31g(d,p)
****
-O 0
6-31+g(d,p)
****


