%chk=lowest10_c1_a2_speciation0_speciationDFT0_speciationDFT0_rank08_E179.19.chk
%nprocshared=20
%mem=40GB
#p opt=loose PM7/gen scf=xqc 

lowest10_c1_a2_speciation0_speciationDFT0_speciationDFT0_rank08_E179.19 DFT input

0 1
Mg     -0.409520000000000      0.005200000000000      1.101470000000000
H      -3.262250000000000      0.734060000000000      1.889360000000000
C      -2.996480000000000      2.149200000000000      0.226540000000000
C      -2.484690000000000      1.372510000000000      1.425470000000000
C      -3.590300000000000      1.256300000000000     -0.873330000000000
H      -3.783590000000000      2.842530000000000      0.587650000000000
H      -2.167030000000000      2.753790000000000     -0.198870000000000
H      -4.435160000000000      0.656580000000000     -0.469880000000000
H      -3.986170000000000      1.933850000000000     -1.657990000000000
C      -2.575770000000000      0.319500000000000     -1.535650000000000
H      -2.039040000000000      2.059120000000000      2.178630000000000
H      -2.250760000000000     -0.477450000000000     -0.836860000000000
H      -3.053460000000000     -0.166120000000000     -2.414870000000000
H      -1.688330000000000      0.884190000000000     -1.892910000000000
C      -0.965580000000000     -3.065890000000000      0.502990000000000
C      -0.179110000000000     -4.036700000000000     -0.096760000000000
C       1.013700000000000     -3.426060000000000     -0.450250000000000
C       0.899330000000000     -2.109800000000000     -0.070300000000000
N      -0.293030000000000     -1.906060000000000      0.510290000000000
C       1.925800000000000     -1.006650000000000     -0.227920000000000
N       1.306390000000000      0.303330000000000      0.056800000000000
C       2.077120000000000      1.550200000000000     -0.101470000000000
H      -0.440400000000000     -5.072490000000000     -0.256000000000000
H      -1.961010000000000     -3.206210000000000      0.907560000000000
H       1.863580000000000     -3.882940000000000     -0.939090000000000
H       2.753530000000000     -1.214380000000000      0.481620000000000
H       2.296660000000000     -1.021490000000000     -1.268600000000000
C       2.424060000000000      1.754190000000000     -1.589470000000000
C       1.209470000000000      2.734660000000000      0.361600000000000
C       3.363090000000000      1.514520000000000      0.743540000000000
H       1.493360000000000      1.795380000000000     -2.197390000000000
H       2.986490000000000      2.699790000000000     -1.738770000000000
H       3.055480000000000      0.929380000000000     -1.975760000000000
H       0.947370000000000      2.637810000000000      1.436810000000000
H       1.753610000000000      3.695800000000000      0.221790000000000
H       0.268520000000000      2.784680000000000     -0.225550000000000
H       3.116790000000000      1.363570000000000      1.816370000000000
H       4.034350000000000      0.695790000000000      0.412200000000000
H       3.922890000000000      2.469100000000000      0.639230000000000
Na      2.299640000000000     -4.544270000000000     11.013800000000000
C       4.725900000000000     -4.779770000000000     13.171889999999999
C       5.023500000000000     -6.295790000000000     11.462660000000000
O       4.106650000000000     -5.795970000000000     12.412550000000000
C       3.734950000000000     -4.249170000000000     14.198470000000000
C       4.346110000000000     -7.381050000000000     10.637820000000000
H       5.606060000000000     -5.179710000000000     13.725250000000001
H       5.028230000000000     -3.928530000000000     12.520270000000000
H       5.347860000000000     -5.491830000000000     10.763140000000000
H       5.904490000000000     -6.752940000000000     11.968380000000000
H       3.465610000000000     -6.963330000000000     10.104690000000000
H       5.060480000000000     -7.784020000000000      9.888890000000000
H       4.012820000000000     -8.210000000000001     11.298109999999999
H       3.414090000000000     -5.066580000000000     14.878690000000001
H       4.212080000000000     -3.447570000000000     14.801439999999999
H       2.842140000000000     -3.830230000000000     13.687450000000000
Na      3.834060000000000     -7.779830000000000     14.128209999999999
Mg      0.783400000000000     -6.447660000000000      6.513100000000000
H       0.263290000000000     -8.901180000000000      4.597800000000000
C      -0.823250000000000     -7.347600000000000      3.499970000000000
C      -0.338500000000000     -7.989660000000000      4.789000000000000
C       0.325180000000000     -6.945350000000000      2.565010000000000
H      -1.472730000000000     -8.080750000000000      2.977740000000000
H      -1.432630000000000     -6.450990000000000      3.742270000000000
H       0.937810000000000     -7.836110000000000      2.306130000000000
H      -0.128560000000000     -6.552520000000000      1.632840000000000
C       1.230040000000000     -5.855930000000000      3.144460000000000
H      -1.199340000000000     -8.232250000000001      5.448670000000000
H       1.778900000000000     -6.228340000000000      4.032970000000000
H       1.974390000000000     -5.553400000000000      2.376420000000000
H       0.635160000000000     -4.960730000000000      3.425690000000000
C       3.956440000000000     -6.554570000000000      6.382500000000000
C       4.925840000000000     -5.657530000000000      6.800710000000000
C       4.261140000000000     -4.563780000000000      7.334160000000000
C       2.916780000000000     -4.830830000000000      7.199580000000000
N       2.745220000000000     -6.036860000000000      6.641200000000000
C       1.749040000000000     -3.952910000000000      7.607390000000000
N       0.494060000000000     -4.506710000000000      7.056530000000000
C      -0.793660000000000     -3.821260000000000      7.265090000000000
H       5.997260000000000     -5.785520000000000      6.728670000000000
H       4.128940000000000     -7.519810000000000      5.924060000000000
H       4.705450000000000     -3.672980000000000      7.756590000000000
H       1.718220000000000     -3.917200000000000      8.714760000000000
H       1.914680000000000     -2.939440000000000      7.196760000000000
C      -0.774650000000000     -2.454100000000000      6.553370000000000
C      -1.911140000000000     -4.677070000000000      6.642290000000000
C      -1.083120000000000     -3.636850000000000      8.765290000000000
H      -0.570630000000000     -2.589890000000000      5.468240000000000
H      -1.751480000000000     -1.937230000000000      6.665140000000000
H       0.005680000000000     -1.788760000000000      6.974720000000000
H      -1.965250000000000     -5.673080000000000      7.131490000000000
H      -2.898720000000000     -4.177550000000000      6.759550000000000
H      -1.729100000000000     -4.829710000000000      5.557460000000000
H      -1.098180000000000     -4.621210000000000      9.280160000000000
H      -0.314850000000000     -2.995300000000000      9.243770000000000
H      -2.068930000000000     -3.144810000000000      8.912360000000000

-C 0
6-31g(d,p)
****
-H 0
6-31g(d,p)
****
-Mg 0
6-31g(d,p)
****
-N 0
6-31+g(d,p)
****
-Na 0
6-31g(d,p)
****
-O 0
6-31+g(d,p)
****


