%chk=lowest10_c1_a2_speciation0_speciationDFT0_speciationDFT2_rank04_E179.79.chk
%nprocshared=20
%mem=40GB
#p opt=loose PM7/gen scf=xqc 

lowest10_c1_a2_speciation0_speciationDFT0_speciationDFT2_rank04_E179.79 DFT input

0 1
Mg      0.670980000000000     -0.620270000000000      0.054980000000000
H       0.632120000000000     -2.160320000000000     -2.536340000000000
C      -0.241280000000000     -3.634960000000000     -1.151420000000000
C       0.778640000000000     -2.565020000000000     -1.514270000000000
C      -1.686480000000000     -3.112350000000000     -1.077750000000000
H      -0.165450000000000     -4.456490000000000     -1.892690000000000
H       0.020620000000000     -4.035740000000000     -0.148010000000000
H      -2.342980000000000     -3.973760000000000     -0.826330000000000
H      -1.783450000000000     -2.360300000000000     -0.265990000000000
C      -2.181320000000000     -2.490120000000000     -2.382120000000000
H       1.818470000000000     -2.930560000000000     -1.390600000000000
H      -1.613820000000000     -1.564660000000000     -2.613380000000000
H      -2.077870000000000     -3.211000000000000     -3.219350000000000
H      -3.252070000000000     -2.213590000000000     -2.276330000000000
C      -1.582640000000000     -0.872150000000000      2.281420000000000
C      -2.175730000000000      0.083170000000000      3.091140000000000
C      -1.602110000000000      1.301340000000000      2.762460000000000
C      -0.699530000000000      1.043270000000000      1.757920000000000
N      -0.690670000000000     -0.269470000000000      1.481170000000000
C       0.200510000000000      2.032350000000000      1.043990000000000
N       0.815650000000000      1.395470000000000     -0.138190000000000
C       1.709050000000000      2.162300000000000     -1.026030000000000
H      -2.935480000000000     -0.085710000000000      3.839970000000000
H      -1.791390000000000     -1.935580000000000      2.286050000000000
H      -1.822640000000000      2.267150000000000      3.196400000000000
H       0.976710000000000      2.357840000000000      1.767140000000000
H      -0.411870000000000      2.893580000000000      0.720570000000000
C       2.880410000000000      2.777380000000000     -0.238400000000000
C       2.275290000000000      1.215550000000000     -2.100840000000000
C       0.901990000000000      3.271170000000000     -1.728620000000000
H       3.462980000000000      1.982190000000000      0.274060000000000
H       3.560640000000000      3.329360000000000     -0.922750000000000
H       2.515530000000000      3.499300000000000      0.520670000000000
H       1.455350000000000      0.744000000000000     -2.684270000000000
H       2.926370000000000      1.775220000000000     -2.809720000000000
H       2.882570000000000      0.408920000000000     -1.637290000000000
H       0.064280000000000      2.825040000000000     -2.308650000000000
H       0.476100000000000      3.986430000000000     -0.996670000000000
H       1.545530000000000      3.849970000000000     -2.424000000000000
Na      0.860340000000000    -10.709949999999999      6.098130000000000
C      -0.033590000000000    -13.777250000000000      6.724540000000000
C      -1.475160000000000    -12.297900000000000      7.745210000000000
O      -0.118510000000000    -12.637280000000001      7.552790000000000
C       1.430870000000000    -14.142300000000001      6.525850000000000
C      -1.560000000000000    -11.060210000000000      8.627210000000000
H      -0.539290000000000    -14.649380000000001      7.198370000000000
H      -0.470970000000000    -13.569960000000000      5.721370000000000
H      -1.965120000000000    -12.056020000000000      6.774480000000000
H      -2.017680000000000    -13.121969999999999      8.262370000000001
H      -1.039890000000000    -10.207360000000000      8.141270000000000
H      -2.624290000000000    -10.786270000000000      8.788010000000000
H      -1.088280000000000    -11.260990000000000      9.612800000000000
H       1.905130000000000    -14.368200000000000      7.504550000000000
H       1.509330000000000    -15.038370000000000      5.874160000000000
H       1.973140000000000    -13.300599999999999      6.044980000000000
Na      0.649660000000000    -13.522589999999999      9.914970000000000
Mg     -0.646990000000000     -5.886840000000000      6.900410000000000
H      -1.699890000000000     -3.616520000000000      8.823040000000001
C      -1.097840000000000     -2.390220000000000      7.110170000000000
C      -0.930530000000000     -3.592070000000000      8.024850000000001
C      -2.468300000000000     -2.351350000000000      6.420920000000000
H      -0.978310000000000     -1.474460000000000      7.725870000000000
H      -0.297900000000000     -2.400470000000000      6.339500000000000
H      -3.278690000000000     -2.330630000000000      7.181640000000000
H      -2.518160000000000     -1.411910000000000      5.833760000000000
C      -2.700790000000000     -3.520270000000000      5.461310000000000
H       0.085830000000000     -3.598630000000000      8.474280000000000
H      -2.749220000000000     -4.481370000000000      6.012050000000000
H      -3.667860000000000     -3.372190000000000      4.933920000000000
H      -1.892190000000000     -3.570160000000000      4.701020000000000
C      -3.353730000000000     -7.547540000000000      6.787220000000000
C      -3.761950000000000     -8.587940000000000      5.968560000000000
C      -2.724110000000000     -8.836720000000000      5.083280000000000
C      -1.737220000000000     -7.924910000000000      5.385670000000000
N      -2.119670000000000     -7.165940000000000      6.421700000000000
C      -0.392000000000000     -7.751320000000000      4.706690000000000
N       0.245150000000000     -6.503030000000000      5.176750000000000
C       1.546970000000000     -6.067310000000000      4.641000000000000
H      -4.708050000000000     -9.109999999999999      6.012130000000000
H      -3.921520000000000     -7.105020000000000      7.595540000000000
H      -2.698210000000000     -9.584059999999999      4.302150000000000
H       0.231000000000000     -8.634919999999999      4.950920000000000
H      -0.557680000000000     -7.690450000000000      3.614900000000000
C       1.407840000000000     -5.742290000000000      3.140450000000000
C       1.975950000000000     -4.785650000000000      5.377450000000000
C       2.620660000000000     -7.149040000000000      4.854770000000000
H       0.635270000000000     -4.956370000000000      2.988300000000000
H       2.370020000000000     -5.373760000000000      2.725480000000000
H       1.113770000000000     -6.638250000000000      2.557440000000000
H       2.094790000000000     -4.976120000000000      6.465550000000000
H       2.946750000000000     -4.412460000000000      4.981390000000000
H       1.218490000000000     -3.984700000000000      5.243310000000000
H       2.723140000000000     -7.384090000000000      5.935800000000000
H       2.362670000000000     -8.080320000000000      4.309880000000000
H       3.604510000000000     -6.799670000000000      4.473320000000000

-C 0
6-31g(d,p)
****
-H 0
6-31g(d,p)
****
-Mg 0
6-31g(d,p)
****
-N 0
6-31+g(d,p)
****
-Na 0
6-31g(d,p)
****
-O 0
6-31+g(d,p)
****


