%chk=lowest10_c1_a2_speciation0_speciationDFT36_speciationDFT96_rank10_E187.41.chk
%nprocshared=20
%mem=40GB
#p opt=loose PM7/gen scf=xqc 

lowest10_c1_a2_speciation0_speciationDFT36_speciationDFT96_rank10_E187.41 DFT input

0 1
Mg     -0.162890000000000     -0.205020000000000     -0.383060000000000
C       3.270590000000000     -0.140740000000000     -1.011420000000000
C       2.308860000000000      2.017280000000000     -0.670940000000000
O       2.176470000000000      0.615780000000000     -0.527520000000000
C       4.560270000000000      0.078700000000000     -0.227390000000000
C       2.376730000000000      2.480070000000000     -2.123880000000000
H       2.988290000000000     -1.208810000000000     -0.888740000000000
H       3.434100000000000      0.003050000000000     -2.096320000000000
H       1.387800000000000      2.463320000000000     -0.246080000000000
H       3.137780000000000      2.422470000000000     -0.056090000000000
H       1.529510000000000      2.055650000000000     -2.701330000000000
H       2.311950000000000      3.587650000000000     -2.155360000000000
H       3.335830000000000      2.178830000000000     -2.588860000000000
H       4.391360000000000     -0.086280000000000      0.855680000000000
H       5.325110000000000     -0.642750000000000     -0.584070000000000
H       4.947630000000000      1.103170000000000     -0.393020000000000
H       0.719000000000000     -2.406390000000000     -2.149960000000000
C       0.632430000000000     -0.793000000000000     -3.637780000000000
C       0.090830000000000     -1.538300000000000     -2.437740000000000
C       0.621440000000000     -1.711430000000000     -4.846980000000000
H       0.005520000000000      0.101150000000000     -3.833630000000000
H       1.665050000000000     -0.455530000000000     -3.423740000000000
H       1.249720000000000     -2.603330000000000     -4.632440000000000
H      -0.422310000000000     -2.040070000000000     -5.043610000000000
C       1.164800000000000     -0.995210000000000     -6.072690000000000
H      -0.976590000000000     -1.814910000000000     -2.561790000000000
H       0.540340000000000     -0.106060000000000     -6.304650000000000
H       2.212390000000000     -0.671270000000000     -5.893540000000000
H       1.142190000000000     -1.690090000000000     -6.936220000000000
C      -1.885350000000000     -0.887550000000000      4.114800000000000
C      -3.126800000000000     -0.468780000000000      3.688970000000000
C      -2.914360000000000      0.544230000000000      2.766370000000000
C      -1.596070000000000      0.684030000000000      2.652170000000000
N      -0.966190000000000     -0.218380000000000      3.523340000000000
C      -0.812240000000000      1.673140000000000      1.810720000000000
N      -0.895460000000000      1.508300000000000      0.348330000000000
C      -2.012900000000000      1.971450000000000     -0.486200000000000
H      -4.079720000000000     -0.853750000000000      4.030140000000000
H      -1.677250000000000     -1.661430000000000      4.839460000000000
H      -3.684660000000000      1.104180000000000      2.266760000000000
H       0.257620000000000      1.515860000000000      2.067550000000000
H      -1.048020000000000      2.708510000000000      2.103830000000000
C      -2.688900000000000      3.201180000000000      0.125530000000000
C      -1.427020000000000      2.366720000000000     -1.856410000000000
C      -3.015130000000000      0.824160000000000     -0.728640000000000
H      -1.930300000000000      4.000320000000000      0.276300000000000
H      -3.484230000000000      3.581380000000000     -0.545760000000000
H      -3.143720000000000      2.954820000000000      1.102280000000000
H      -0.912190000000000      1.502580000000000     -2.322210000000000
H      -2.225140000000000      2.703200000000000     -2.552820000000000
H      -0.681630000000000      3.183300000000000     -1.750450000000000
H      -2.531850000000000     -0.020650000000000     -1.268370000000000
H      -3.421700000000000      0.415830000000000      0.206730000000000
H      -3.866200000000000      1.179380000000000     -1.347860000000000
C      -0.038960000000000     -2.674600000000000      1.580460000000000
C       1.747020000000000     -1.227840000000000      2.112800000000000
O       0.853850000000000     -1.681520000000000      1.115620000000000
C      -1.411360000000000     -2.490130000000000      0.928730000000000
C       2.862910000000000     -2.227080000000000      2.341670000000000
H       0.357760000000000     -3.667030000000000      1.286820000000000
H      -0.184620000000000     -2.654470000000000      2.681890000000000
H       2.188290000000000     -0.271450000000000      1.768760000000000
H       1.249650000000000     -0.979920000000000      3.066180000000000
H       3.384610000000000     -2.433330000000000      1.384570000000000
H       3.582160000000000     -1.807160000000000      3.074500000000000
H       2.438350000000000     -3.167990000000000      2.746080000000000
H      -1.854810000000000     -1.514460000000000      1.197050000000000
H      -1.338510000000000     -2.535860000000000     -0.176250000000000
H      -2.101080000000000     -3.288130000000000      1.272330000000000
Na     -1.706940000000000      4.431330000000000     15.375170000000001
C      -0.525320000000000      4.912580000000000     12.352690000000001
C      -2.828410000000000      4.891870000000000     12.324840000000000
O      -1.675990000000000      4.202970000000000     12.759550000000001
C       0.713650000000000      4.157360000000000     12.812590000000000
C      -4.066980000000000      4.130620000000000     12.774509999999999
H      -0.481030000000000      4.994640000000000     11.242380000000001
H      -0.499730000000000      5.923560000000000     12.819450000000000
H      -2.874000000000000      5.910870000000000     12.772800000000000
H      -2.854760000000000      4.949070000000000     11.214540000000000
H      -4.087280000000000      4.052440000000000     13.882220000000000
H      -4.979340000000000      4.665890000000000     12.435370000000001
H      -4.067190000000000      3.109450000000000     12.337529999999999
H       0.733250000000000      3.143150000000000     12.360049999999999
H       1.626530000000000      4.707510000000000     12.500299999999999
H       0.713730000000000      4.060950000000000     13.919250000000000
Na     -1.647060000000000      2.045570000000000     11.249020000000000
Mg     -2.253550000000000      7.818780000000000      6.805560000000000
C      -0.992270000000000      4.822650000000000      4.714140000000000
C      -3.296320000000000      4.740870000000000      4.733410000000000
O      -2.145330000000000      4.988330000000000      5.514580000000000
C       0.226180000000000      4.653680000000000      5.607490000000000
C      -4.540950000000000      5.031130000000000      5.560210000000000
H      -1.051840000000000      3.907830000000000      4.086570000000000
H      -0.843300000000000      5.712790000000000      4.066750000000000
H      -3.318490000000000      5.392160000000000      3.832170000000000
H      -3.334610000000000      3.673480000000000      4.423650000000000
H      -4.552140000000000      6.091700000000000      5.883870000000000
H      -5.449600000000000      4.834890000000000      4.952660000000000
H      -4.560460000000000      4.378980000000000      6.458330000000000
H       0.102700000000000      3.763430000000000      6.257770000000000
H       1.136800000000000      4.533040000000000      4.984500000000000
H       0.361450000000000      5.537950000000000      6.249540000000000
H      -4.298990000000000      5.898200000000000      8.555709999999999
C      -4.416220000000000      8.061059999999999      8.888830000000000
C      -3.630080000000000      6.772680000000000      8.685600000000001
C      -5.316870000000000      8.361030000000000      7.684520000000000
H      -5.030670000000000      7.948680000000000      9.806080000000000
H      -3.703400000000000      8.903540000000000      9.030620000000001
H      -4.697230000000000      8.528729999999999      6.776390000000000
H      -5.994620000000000      7.500670000000000      7.498140000000000
C      -6.169150000000000      9.600970000000000      7.938760000000000
H      -2.929790000000000      6.605470000000000      9.527770000000000
H      -6.813080000000000      9.441000000000001      8.829969999999999
H      -5.525260000000000     10.489979999999999      8.108570000000000
H      -6.822060000000000      9.794040000000001      7.061520000000000
C      -3.455190000000000      8.033160000000001      3.881330000000000
C      -2.859940000000000      8.338039999999999      2.670500000000000
C      -1.516540000000000      8.570910000000000      2.928560000000000
C      -1.346650000000000      8.376429999999999      4.282910000000000
N      -2.518770000000000      8.059320000000000      4.842900000000000
C      -0.068910000000000      8.503909999999999      5.097510000000000
N      -0.251990000000000      7.918390000000000      6.448310000000000
C       0.680270000000000      8.289360000000000      7.530670000000000
H      -3.351280000000000      8.387969999999999      1.708230000000000
H      -4.499890000000000      7.800420000000000      4.043850000000000
H      -0.754080000000000      8.837210000000001      2.210460000000000
H       0.742090000000000      7.944390000000000      4.588430000000000
H       0.191170000000000      9.579940000000001      5.141710000000000
C       0.419280000000000      9.729060000000000      8.004189999999999
C       0.447980000000000      7.335510000000000      8.720929999999999
C       2.140340000000000      8.131919999999999      7.059070000000000
H      -0.622900000000000      9.829480000000000      8.377100000000000
H       1.113990000000000      9.992740000000000      8.831590000000000
H       0.574270000000000     10.460160000000000      7.186630000000000
H       0.629360000000000      6.278860000000000      8.432670000000000
H       1.135100000000000      7.578240000000000      9.561430000000000
H      -0.594680000000000      7.416270000000000      9.093719999999999
H       2.321990000000000      7.091240000000000      6.712010000000000
H       2.366680000000000      8.824339999999999      6.221930000000000
H       2.848460000000000      8.353949999999999      7.885520000000000

-C 0
6-31g(d,p)
****
-H 0
6-31g(d,p)
****
-Mg 0
6-31g(d,p)
****
-N 0
6-31+g(d,p)
****
-Na 0
6-31g(d,p)
****
-O 0
6-31+g(d,p)
****


