%chk=lowest10_c1_a2_speciation7_speciationDFT37b_speciationDFT37b_rank03_E187.64.chk
%nprocshared=20
%mem=40GB
#p opt=loose PM7/gen scf=xqc 

lowest10_c1_a2_speciation7_speciationDFT37b_speciationDFT37b_rank03_E187.64 DFT input

0 1
Mg      0.071500000000000     -0.411110000000000     -0.314820000000000
C      -1.057170000000000      1.721570000000000     -2.406000000000000
C       0.958240000000000      0.720790000000000     -3.195230000000000
O       0.242610000000000      1.253920000000000     -2.101170000000000
C      -1.991480000000000      0.653010000000000     -2.972760000000000
C       1.398180000000000      1.804950000000000     -4.165520000000000
H      -1.495680000000000      2.040120000000000     -1.442920000000000
H      -1.033480000000000      2.638430000000000     -3.027670000000000
H       1.874910000000000      0.254910000000000     -2.771940000000000
H       0.420860000000000     -0.105180000000000     -3.704860000000000
H       1.914900000000000      2.614190000000000     -3.607780000000000
H       2.095280000000000      1.371500000000000     -4.912000000000000
H       0.518920000000000      2.219290000000000     -4.698240000000000
H      -1.926650000000000     -0.277210000000000     -2.374260000000000
H      -3.036310000000000      1.026730000000000     -2.940450000000000
H      -1.736040000000000      0.432120000000000     -4.027800000000000
H      -0.892850000000000     -2.743450000000000     -0.937690000000000
C       1.271470000000000     -2.991810000000000     -0.851030000000000
C       0.030730000000000     -2.238830000000000     -1.285050000000000
C       1.371760000000000     -3.030210000000000      0.678240000000000
H       1.204990000000000     -4.015340000000000     -1.270150000000000
H       2.174730000000000     -2.482570000000000     -1.255700000000000
H       1.543850000000000     -2.004220000000000      1.065760000000000
H       0.428000000000000     -3.413940000000000      1.119780000000000
C       2.512420000000000     -3.937080000000000      1.122310000000000
H       0.003100000000000     -2.104470000000000     -2.384900000000000
H       2.312190000000000     -4.974480000000000      0.778460000000000
H       3.479000000000000     -3.590780000000000      0.699350000000000
H       2.582010000000000     -3.938380000000000      2.230390000000000
C       2.558850000000000      0.102040000000000      2.558570000000000
C       2.827100000000000      0.480760000000000      1.264840000000000
C       1.746820000000000      1.218140000000000      0.813020000000000
C       0.838330000000000      1.264960000000000      1.799120000000000
N       1.303500000000000      0.603930000000000      2.946410000000000
C      -0.517390000000000      1.923530000000000      1.727420000000000
N      -1.433490000000000      1.182370000000000      0.845240000000000
C      -2.440880000000000      0.291410000000000      1.473700000000000
H       3.718510000000000      0.223850000000000      0.703540000000000
H       3.196650000000000     -0.498450000000000      3.186610000000000
H       1.655240000000000      1.653820000000000     -0.166680000000000
H      -0.395670000000000      2.955850000000000      1.336230000000000
H      -0.917950000000000      2.007830000000000      2.750940000000000
C      -3.420510000000000      1.103680000000000      2.343050000000000
C      -3.249540000000000     -0.370910000000000      0.340390000000000
C      -1.782480000000000     -0.826640000000000      2.310160000000000
H      -3.855380000000000      1.935970000000000      1.749890000000000
H      -4.247840000000000      0.454770000000000      2.702810000000000
H      -2.933300000000000      1.522250000000000      3.244070000000000
H      -2.594550000000000     -1.007550000000000     -0.288990000000000
H      -4.055970000000000     -1.021110000000000      0.746180000000000
H      -3.716220000000000      0.398520000000000     -0.311740000000000
H      -1.158950000000000     -1.486670000000000      1.670410000000000
H      -1.145760000000000     -0.409130000000000      3.113290000000000
H      -2.560030000000000     -1.457390000000000      2.794630000000000
Na      0.558140000000000     -0.343350000000000      9.881110000000000
C       2.017660000000000      0.848380000000000      7.297610000000000
C       1.517660000000000     -1.376480000000000      6.750380000000000
O       1.883470000000000     -0.475240000000000      7.777860000000000
C       0.688540000000000      1.591880000000000      7.380360000000000
C       2.750740000000000     -1.970240000000000      6.074610000000000
H       2.751430000000000      1.372400000000000      7.946100000000000
H       2.431920000000000      0.892000000000000      6.265000000000000
H       0.939980000000000     -2.203100000000000      7.216330000000000
H       0.843990000000000     -0.915200000000000      5.994160000000000
H       3.379710000000000     -2.506370000000000      6.815110000000000
H       2.431570000000000     -2.691850000000000      5.293800000000000
H       3.356670000000000     -1.173570000000000      5.597200000000000
H       0.321590000000000      1.604780000000000      8.428039999999999
H       0.827170000000000      2.637920000000000      7.036920000000000
H      -0.072140000000000      1.105150000000000      6.736600000000000
C      -2.290010000000000     -1.003120000000000      8.203220000000000
C      -2.632400000000000     -1.057350000000000     10.562469999999999
O      -1.703800000000000     -1.006780000000000      9.493090000000000
C      -3.159770000000000      0.223170000000000      7.923680000000000
C      -3.461960000000000     -2.340920000000000     10.591810000000001
H      -1.450590000000000     -0.970950000000000      7.477260000000000
H      -2.827800000000000     -1.949900000000000      7.991990000000000
H      -2.034770000000000     -1.040410000000000     11.499300000000000
H      -3.269620000000000     -0.149890000000000     10.602370000000001
H      -2.792870000000000     -3.226800000000000     10.573869999999999
H      -4.067470000000000     -2.364270000000000     11.521970000000000
H      -4.161780000000000     -2.382270000000000      9.732889999999999
H      -2.583300000000000      1.152620000000000      8.114900000000000
H      -3.478070000000000      0.209320000000000      6.859980000000000
H      -4.075490000000000      0.214280000000000      8.548590000000001
Na      3.768940000000000     -1.464710000000000      8.884290000000000
C       2.664630000000000     -0.886590000000000     11.977390000000000
C       2.045520000000000     -3.003030000000000     11.193750000000000
O       2.353170000000000     -1.669110000000000     10.843240000000000
C       3.330680000000000      0.402090000000000     11.511970000000000
C       0.616810000000000     -3.139450000000000     11.715529999999999
H       1.734970000000000     -0.615210000000000     12.522160000000000
H       3.378520000000000     -1.400530000000000     12.659649999999999
H       2.127420000000000     -3.612470000000000     10.268260000000000
H       2.781880000000000     -3.432070000000000     11.908849999999999
H      -0.102680000000000     -2.760200000000000     10.961100000000000
H       0.396440000000000     -4.209310000000000     11.913330000000000
H       0.487210000000000     -2.575760000000000     12.660740000000001
H       2.657670000000000      0.955750000000000     10.822699999999999
H       3.558680000000000      1.047190000000000     12.386320000000000
H       4.278080000000000      0.172700000000000     10.980890000000000
C       6.844030000000000     -1.927400000000000     10.037080000000000
C       6.821130000000000     -0.077810000000000      8.644970000000001
O       6.035370000000000     -1.047270000000000      9.294600000000001
C       5.940920000000000     -2.966220000000000     10.688390000000000
C       5.888480000000000      0.856560000000000      7.886040000000000
H       7.562910000000000     -2.462010000000000      9.375880000000000
H       7.380620000000000     -1.381290000000000     10.845050000000001
H       7.391630000000000      0.529820000000000      9.383060000000000
H       7.508230000000000     -0.553720000000000      7.909490000000000
H       5.188350000000000      1.348210000000000      8.594950000000001
H       6.474750000000000      1.637610000000000      7.358960000000000
H       5.298120000000000      0.282260000000000      7.139430000000000
H       5.386280000000000     -3.532450000000000      9.909210000000000
H       6.544680000000000     -3.676230000000000     11.290540000000000
H       5.208340000000000     -2.464470000000000     11.353990000000000
Mg     -0.138460000000000     -0.449050000000000     18.756779999999999
C      -1.467120000000000     -2.504920000000000     16.656540000000000
C      -1.619030000000000     -0.256120000000000     15.884350000000000
O      -1.719170000000000     -1.148580000000000     16.976150000000001
C      -0.064920000000000     -2.769180000000000     16.106210000000001
C      -2.777360000000000     -0.409300000000000     14.907980000000000
H      -1.539630000000000     -3.062750000000000     17.610740000000000
H      -2.258060000000000     -2.930330000000000     16.007180000000002
H      -1.672010000000000      0.770080000000000     16.308350000000001
H      -0.635090000000000     -0.305730000000000     15.375660000000000
H      -3.739830000000000     -0.326970000000000     15.455650000000000
H      -2.722540000000000      0.393660000000000     14.144050000000000
H      -2.723950000000000     -1.387990000000000     14.390420000000001
H       0.699080000000000     -2.292280000000000     16.750340000000001
H       0.117920000000000     -3.863660000000000     16.079000000000001
H       0.034360000000000     -2.383210000000000     15.073740000000001
H       2.398570000000000     -0.073480000000000     18.144060000000000
C       1.506560000000000      1.909560000000000     18.241620000000001
C       1.488350000000000      0.459220000000000     17.800319999999999
C       1.488800000000000      2.001320000000000     19.771110000000000
H       2.419880000000000      2.383040000000000     17.826799999999999
H       0.607700000000000      2.428170000000000     17.840109999999999
H       0.526280000000000      1.601090000000000     20.156240000000000
H       2.316100000000000      1.398970000000000     20.203209999999999
C       1.653550000000000      3.444420000000000     20.229970000000002
H       1.396740000000000      0.378060000000000     16.697970000000002
H       2.637130000000000      3.831870000000000     19.888120000000001
H       0.843790000000000      4.082530000000000     19.817290000000000
H       1.619940000000000      3.490040000000000     21.338709999999999
C      -1.887720000000000      1.463240000000000     21.685230000000001
C      -2.344230000000000      1.490110000000000     20.387100000000000
C      -2.418220000000000      0.180150000000000     19.948210000000000
C      -2.005990000000000     -0.616850000000000     20.939309999999999
N      -1.675450000000000      0.134390000000000     22.084959999999999
C      -1.905980000000000     -2.118570000000000     20.886170000000000
N      -0.831810000000000     -2.559060000000000     19.977910000000001
C       0.451370000000000     -2.981450000000000     20.593730000000001
H      -2.586620000000000      2.380570000000000     19.821169999999999
H      -1.710250000000000      2.326820000000000     22.309920000000002
H      -2.746730000000000     -0.135980000000000     18.970569999999999
H      -2.874040000000000     -2.525250000000000     20.523890000000002
H      -1.757770000000000     -2.498010000000000     21.910630000000001
C       0.255410000000000     -4.244050000000000     21.458610000000000
C       1.426510000000000     -3.339840000000000     19.455729999999999
C       1.088800000000000     -1.849070000000000     21.426480000000002
H      -0.221580000000000     -5.047530000000000     20.857630000000000
H       1.234890000000000     -4.615260000000000     21.829689999999999
H      -0.369270000000000     -4.053310000000000     22.351690000000001
H       1.636760000000000     -2.452400000000000     18.825320000000001
H       2.398800000000000     -3.698340000000000     19.861049999999999
H       1.003160000000000     -4.139420000000000     18.810210000000001
H       1.295200000000000     -0.961780000000000     20.790949999999999
H       0.431670000000000     -1.540300000000000     22.262190000000000
H       2.053200000000000     -2.186400000000000     21.865390000000001

-C 0
6-31g(d,p)
****
-H 0
6-31g(d,p)
****
-Mg 0
6-31g(d,p)
****
-N 0
6-31+g(d,p)
****
-Na 0
6-31g(d,p)
****
-O 0
6-31+g(d,p)
****


