%chk=lowest10_c1_a2_speciation0_speciationDFT1_speciationDFT37b_rank01_E164.48.chk
%nprocshared=20
%mem=40GB
#p opt=loose PM7/gen scf=xqc 

lowest10_c1_a2_speciation0_speciationDFT1_speciationDFT37b_rank01_E164.48 DFT input

0 1
Mg      0.383740000000000      0.395870000000000     -0.001500000000000
C      -0.991980000000000      0.892380000000000     -2.832720000000000
C      -0.856580000000000      2.912370000000000     -1.571910000000000
O      -1.107660000000000      1.523400000000000     -1.572410000000000
C       0.389650000000000      1.019370000000000     -3.473510000000000
C      -1.976080000000000      3.688190000000000     -2.245960000000000
H      -1.150570000000000     -0.184650000000000     -2.644150000000000
H      -1.809240000000000      1.186040000000000     -3.520760000000000
H      -0.825280000000000      3.222910000000000     -0.504550000000000
H       0.140930000000000      3.174080000000000     -1.980900000000000
H      -2.952460000000000      3.375320000000000     -1.819630000000000
H      -1.830630000000000      4.774100000000000     -2.070920000000000
H      -1.965900000000000      3.498380000000000     -3.337940000000000
H       1.184250000000000      0.803450000000000     -2.731970000000000
H       0.473500000000000      0.292440000000000     -4.308330000000000
H       0.534930000000000      2.037530000000000     -3.885050000000000
H       2.929250000000000      0.819970000000000     -0.262340000000000
C       2.276810000000000      2.081340000000000      1.393050000000000
C       2.113600000000000      1.525070000000000     -0.006410000000000
C       2.194740000000000      0.958870000000000      2.434030000000000
H       3.259400000000000      2.591130000000000      1.436310000000000
H       1.466740000000000      2.817120000000000      1.596700000000000
H       1.168270000000000      0.536540000000000      2.445880000000000
H       2.902740000000000      0.141830000000000      2.181040000000000
C       2.542860000000000      1.482640000000000      3.821730000000000
H       2.056120000000000      2.335130000000000     -0.760510000000000
H       3.589010000000000      1.856850000000000      3.821670000000000
H       1.858770000000000      2.306520000000000      4.115460000000000
H       2.460820000000000      0.662100000000000      4.565080000000000
C      -1.235080000000000     -0.531240000000000      3.309930000000000
C      -1.624870000000000      0.584350000000000      2.593390000000000
C      -1.845620000000000      0.163520000000000      1.296650000000000
C      -1.563490000000000     -1.136440000000000      1.268900000000000
N      -1.200270000000000     -1.568810000000000      2.553700000000000
C      -1.599790000000000     -2.045490000000000      0.065140000000000
N      -0.509900000000000     -1.737220000000000     -0.877550000000000
C       0.679560000000000     -2.624410000000000     -0.883830000000000
H      -1.706660000000000      1.598400000000000      2.968040000000000
H      -0.975300000000000     -0.555750000000000      4.356110000000000
H      -2.162480000000000      0.780460000000000      0.472050000000000
H      -2.572500000000000     -1.909540000000000     -0.453790000000000
H      -1.553860000000000     -3.090280000000000      0.408890000000000
C       0.290530000000000     -4.054190000000000     -1.306850000000000
C       1.668630000000000     -2.072400000000000     -1.930830000000000
C       1.391980000000000     -2.645700000000000      0.485510000000000
H      -0.265430000000000     -4.028740000000000     -2.268030000000000
H       1.199860000000000     -4.679080000000000     -1.440330000000000
H      -0.332920000000000     -4.560400000000000     -0.545490000000000
H       2.017410000000000     -1.058750000000000     -1.645710000000000
H       2.568050000000000     -2.721240000000000     -2.019540000000000
H       1.186970000000000     -2.004710000000000     -2.930000000000000
H       1.781180000000000     -1.638830000000000      0.746890000000000
H       0.709130000000000     -2.978960000000000      1.290410000000000
H       2.253210000000000     -3.349240000000000      0.464190000000000
Na     -5.464810000000000     -5.524990000000000     -0.667340000000000
C      -4.274670000000000     -4.413430000000000      2.177650000000000
C      -4.112560000000000     -6.709030000000000      2.081960000000000
O      -4.979980000000000     -5.607760000000000      1.916060000000000
C      -5.215480000000000     -3.229350000000000      2.008680000000000
C      -4.873260000000000     -7.993170000000000      1.782630000000000
H      -3.896670000000000     -4.398720000000000      3.224050000000000
H      -3.435360000000000     -4.285950000000000      1.458280000000000
H      -3.256340000000000     -6.649200000000000      1.371700000000000
H      -3.745730000000000     -6.767710000000000      3.132170000000000
H      -5.249080000000000     -7.980390000000000      0.737340000000000
H      -4.199760000000000     -8.867089999999999      1.910460000000000
H      -5.733790000000000     -8.098820000000000      2.476950000000000
H      -6.066620000000000     -3.313920000000000      2.717580000000000
H      -4.669290000000000     -2.283970000000000      2.213410000000000
H      -5.609130000000000     -3.199060000000000      0.970490000000000
Na     -6.639030000000000     -5.824690000000000      3.950780000000000
Mg     -2.619780000000000     -7.372050000000000      9.034440000000000
H      -1.681490000000000     -8.249029999999999     11.839290000000000
C      -0.546050000000000     -6.397220000000000     11.587940000000000
C      -1.119370000000000     -7.698140000000000     11.057350000000000
C       0.451570000000000     -6.694150000000000     12.703760000000001
H      -0.042110000000000     -5.856930000000000     10.757090000000000
H      -1.377800000000000     -5.765180000000000     11.969350000000000
H      -0.064490000000000     -7.243630000000000     13.521080000000000
H       1.271250000000000     -7.330340000000000     12.303720000000000
C       1.047730000000000     -5.412420000000000     13.266719999999999
H      -0.331070000000000     -8.336510000000001     10.606280000000000
H       1.585070000000000     -4.855990000000000     12.469600000000000
H       0.246320000000000     -4.769740000000000     13.689109999999999
H       1.765570000000000     -5.669600000000000     14.073020000000000
C      -4.722570000000000     -9.705690000000001      8.602180000000001
C      -5.827020000000000     -9.808339999999999      7.772760000000000
C      -5.922300000000000     -8.612800000000000      7.076000000000000
C      -4.881990000000000     -7.826880000000000      7.520510000000000
N      -4.162040000000000     -8.497680000000001      8.429570000000000
C      -4.533420000000000     -6.414240000000000      7.084940000000000
N      -3.450310000000000     -5.877940000000000      7.936850000000000
C      -2.931100000000000     -4.512020000000000      7.746520000000000
H      -6.487870000000000    -10.659730000000000      7.681830000000000
H      -4.354790000000000    -10.464950000000000      9.280510000000000
H      -6.667050000000000     -8.344630000000000      6.339730000000000
H      -5.435660000000000     -5.783470000000000      7.195050000000000
H      -4.218510000000000     -6.454400000000000      6.022170000000000
C      -4.037310000000000     -3.486970000000000      8.059939999999999
C      -1.765020000000000     -4.285320000000000      8.725840000000000
C      -2.416580000000000     -4.320310000000000      6.309360000000000
H      -4.400450000000000     -3.621880000000000      9.102610000000000
H      -3.654980000000000     -2.449580000000000      7.952380000000000
H      -4.899190000000000     -3.601030000000000      7.371950000000000
H      -0.939590000000000     -5.001950000000000      8.527970000000000
H      -1.360500000000000     -3.253710000000000      8.621380000000000
H      -2.101260000000000     -4.418110000000000      9.776570000000000
H      -1.621570000000000     -5.062770000000000      6.082150000000000
H      -3.238280000000000     -4.441980000000000      5.575870000000000
H      -1.997110000000000     -3.299610000000000      6.177860000000000

-C 0
6-31g(d,p)
****
-H 0
6-31g(d,p)
****
-Mg 0
6-31g(d,p)
****
-N 0
6-31+g(d,p)
****
-Na 0
6-31g(d,p)
****
-O 0
6-31+g(d,p)
****


