%chk=lowest10_c1_a2_speciation7_speciationDFT1_speciationDFT2_rank02_E221.81.chk
%nprocshared=20
%mem=40GB
#p opt=loose PM7/gen scf=xqc 

lowest10_c1_a2_speciation7_speciationDFT1_speciationDFT2_rank02_E221.81 DFT input

0 1
Mg     -0.704500000000000     -0.135270000000000     -0.619660000000000
H       0.419610000000000     -1.937610000000000     -2.757680000000000
C       0.125110000000000     -0.068950000000000     -3.887540000000000
C      -0.322240000000000     -1.123270000000000     -2.884990000000000
C       1.375420000000000      0.712420000000000     -3.447880000000000
H       0.303980000000000     -0.566420000000000     -4.862550000000000
H      -0.701230000000000      0.664640000000000     -4.008890000000000
H       1.621050000000000      1.435890000000000     -4.255690000000000
H       1.163210000000000      1.291110000000000     -2.523750000000000
C       2.596140000000000     -0.171840000000000     -3.201310000000000
H      -1.314540000000000     -1.543990000000000     -3.146920000000000
H       2.424910000000000     -0.840060000000000     -2.331760000000000
H       2.822280000000000     -0.780060000000000     -4.101450000000000
H       3.474470000000000      0.467760000000000     -2.969750000000000
C      -0.081270000000000      2.974580000000000     -0.436040000000000
C       0.152260000000000      3.796520000000000      0.655000000000000
C       0.083570000000000      2.994640000000000      1.783700000000000
C      -0.172200000000000      1.719970000000000      1.335800000000000
N      -0.276730000000000      1.721020000000000     -0.001840000000000
C      -0.349310000000000      0.463560000000000      2.164880000000000
N      -0.347650000000000     -0.725980000000000      1.289110000000000
C      -0.466820000000000     -2.080380000000000      1.859640000000000
H       0.344190000000000      4.859830000000000      0.633470000000000
H      -0.110720000000000      3.281350000000000     -1.475030000000000
H       0.213570000000000      3.300600000000000      2.812970000000000
H      -1.314040000000000      0.555200000000000      2.705530000000000
H       0.490050000000000      0.395110000000000      2.880510000000000
C      -1.737160000000000     -2.210480000000000      2.719390000000000
C      -0.539320000000000     -3.101930000000000      0.708930000000000
C       0.782230000000000     -2.388150000000000      2.708400000000000
H      -2.641240000000000     -1.987780000000000      2.113080000000000
H      -1.825190000000000     -3.241760000000000      3.123010000000000
H      -1.706370000000000     -1.517430000000000      3.584880000000000
H       0.359600000000000     -3.029540000000000      0.059350000000000
H      -0.592940000000000     -4.138870000000000      1.110710000000000
H      -1.439500000000000     -2.928550000000000      0.081090000000000
H       1.698860000000000     -2.307110000000000      2.083460000000000
H       0.877570000000000     -1.682560000000000      3.558040000000000
H       0.731570000000000     -3.413350000000000      3.131480000000000
Na    -11.257360000000000     -9.151410000000000     -1.972230000000000
C     -12.011690000000000     -6.189920000000000     -2.896660000000000
C     -11.301840000000000     -5.992650000000000     -0.669500000000000
O     -11.965970000000000     -6.801270000000000     -1.621970000000000
C     -10.781140000000001     -6.557660000000000     -3.719670000000000
C     -12.280690000000000     -5.062890000000000      0.043210000000000
H     -12.910860000000000     -6.571900000000000     -3.425010000000000
H     -12.134090000000000     -5.084940000000000     -2.839310000000000
H     -10.844870000000000     -6.667070000000000      0.085790000000000
H     -10.463609999999999     -5.409560000000000     -1.111410000000000
H     -13.069080000000000     -5.650000000000000      0.558500000000000
H     -11.733870000000000     -4.463920000000000      0.801340000000000
H     -12.759520000000000     -4.369910000000000     -0.678820000000000
H     -10.711520000000000     -7.659680000000000     -3.833810000000000
H     -10.858260000000000     -6.097790000000000     -4.726710000000000
H      -9.858020000000000     -6.185880000000000     -3.230340000000000
C      -8.043369999999999     -8.362780000000001     -1.371790000000000
C      -8.351360000000000    -10.722780000000000     -1.512420000000000
O      -8.956440000000001     -9.444410000000000     -1.427440000000000
C      -7.175730000000000     -8.223480000000000     -2.622970000000000
C      -7.513220000000000    -11.084149999999999     -0.286470000000000
H      -8.655810000000001     -7.439330000000000     -1.303490000000000
H      -7.434840000000000     -8.383929999999999     -0.444600000000000
H      -9.181060000000000    -11.460270000000000     -1.562740000000000
H      -7.783970000000000    -10.852240000000000     -2.457210000000000
H      -8.118670000000000    -10.964300000000000      0.636480000000000
H      -7.182970000000000    -12.140910000000000     -0.367220000000000
H      -6.605460000000000    -10.450730000000000     -0.224680000000000
H      -7.815510000000000     -8.176520000000000     -3.529140000000000
H      -6.583720000000000     -7.288000000000000     -2.553160000000000
H      -6.461700000000000     -9.067040000000000     -2.710060000000000
Na    -14.043110000000000     -7.446030000000000     -0.623850000000000
C     -13.836729999999999    -10.653230000000001     -1.483710000000000
C     -12.951820000000000    -10.251340000000001      0.645640000000000
O     -13.200730000000000     -9.716880000000000     -0.638630000000000
C     -14.397900000000000     -9.916190000000000     -2.693380000000000
C     -11.716279999999999    -11.149210000000000      0.660680000000000
H     -13.099970000000001    -11.400359999999999     -1.848850000000000
H     -14.689600000000000    -11.162229999999999     -0.980950000000000
H     -12.754740000000000     -9.394019999999999      1.324460000000000
H     -13.839580000000000    -10.775259999999999      1.063790000000000
H     -10.831799999999999    -10.587300000000001      0.296210000000000
H     -11.519700000000000    -11.488239999999999      1.699340000000000
H     -11.870490000000000    -12.044779999999999      0.024980000000000
H     -13.584099999999999     -9.384470000000000     -3.231530000000000
H     -14.875439999999999    -10.638470000000000     -3.388350000000000
H     -15.158830000000000     -9.175170000000000     -2.370930000000000
C     -17.293250000000000     -7.771530000000000     -0.059150000000000
C     -16.960730000000002     -6.279180000000000     -1.798180000000000
O     -16.346280000000000     -7.196520000000000     -0.926410000000000
C     -16.562329999999999     -8.728470000000000      0.873180000000000
C     -15.890689999999999     -5.718560000000000     -2.725470000000000
H     -17.787210000000002     -6.992660000000000      0.564610000000000
H     -18.047180000000001     -8.356380000000000     -0.632300000000000
H     -17.730660000000000     -6.782530000000000     -2.425300000000000
H     -17.405830000000002     -5.431350000000000     -1.230250000000000
H     -15.426439999999999     -6.543120000000000     -3.307750000000000
H     -16.338880000000000     -4.987970000000000     -3.430360000000000
H     -15.100239999999999     -5.209940000000000     -2.131920000000000
H     -15.798010000000000     -8.177880000000000      1.463160000000000
H     -17.279800000000002     -9.209190000000000      1.569830000000000
H     -16.054780000000001     -9.517590000000000      0.280690000000000
Mg     -6.417700000000000     -3.301430000000000      3.802820000000000
H      -3.812350000000000     -4.709640000000000      2.938540000000000
C      -4.887140000000000     -4.633070000000000      1.036960000000000
C      -4.838730000000000     -4.837380000000000      2.539530000000000
C      -4.023160000000000     -5.685420000000000      0.348660000000000
H      -5.941250000000000     -4.718840000000000      0.693330000000000
H      -4.517310000000000     -3.611620000000000      0.798850000000000
H      -2.975640000000000     -5.594910000000000      0.710370000000000
H      -4.406730000000000     -6.698110000000000      0.602400000000000
C      -4.043260000000000     -5.511760000000000     -1.162430000000000
H      -5.259310000000000     -5.822600000000000      2.830410000000000
H      -5.080260000000000     -5.612310000000000     -1.545670000000000
H      -3.644270000000000     -4.512890000000000     -1.439220000000000
H      -3.409290000000000     -6.295330000000000     -1.626790000000000
C      -5.578560000000000     -2.789690000000000      6.817310000000000
C      -6.031120000000000     -1.879190000000000      7.758020000000000
C      -7.008940000000000     -1.113290000000000      7.140960000000000
C      -7.100980000000000     -1.578290000000000      5.847690000000000
N      -6.243580000000000     -2.592770000000000      5.668130000000000
C      -8.016420000000000     -1.079430000000000      4.743560000000000
N      -7.670830000000000     -1.738430000000000      3.465940000000000
C      -8.391290000000000     -1.420800000000000      2.220330000000000
H      -5.690810000000000     -1.785080000000000      8.780200000000001
H      -4.818110000000000     -3.545480000000000      6.968100000000000
H      -7.579050000000000     -0.306530000000000      7.580680000000000
H      -7.877990000000000      0.013850000000000      4.644120000000000
H      -9.060520000000000     -1.310410000000000      5.037820000000000
C      -8.135999999999999      0.048050000000000      1.832430000000000
C      -7.853560000000000     -2.322860000000000      1.094540000000000
C      -9.900029999999999     -1.677030000000000      2.382240000000000
H      -7.045400000000000      0.227310000000000      1.707050000000000
H      -8.645289999999999      0.297710000000000      0.877360000000000
H      -8.517250000000001      0.742130000000000      2.608410000000000
H      -8.026120000000001     -3.394280000000000      1.332130000000000
H      -8.364450000000000     -2.095280000000000      0.132270000000000
H      -6.762970000000000     -2.165640000000000      0.950880000000000
H     -10.082920000000000     -2.736210000000000      2.664620000000000
H     -10.334479999999999     -1.019530000000000      3.162790000000000
H     -10.434640000000000     -1.467290000000000      1.430810000000000

-C 0
6-31g(d,p)
****
-H 0
6-31g(d,p)
****
-Mg 0
6-31g(d,p)
****
-N 0
6-31+g(d,p)
****
-Na 0
6-31g(d,p)
****
-O 0
6-31+g(d,p)
****


