%chk=lowest10_c1_a2_speciation0_speciationDFT2_speciationDFT2_rank05_E180.15.chk
%nprocshared=20
%mem=40GB
#p opt=loose PM7/gen scf=xqc 

lowest10_c1_a2_speciation0_speciationDFT2_speciationDFT2_rank05_E180.15 DFT input

0 1
Mg      0.264480000000000      0.973660000000000      0.053930000000000
H       1.617440000000000      1.710920000000000     -2.536790000000000
C       3.331380000000000      1.691570000000000     -1.152360000000000
C       1.894780000000000      2.040030000000000     -1.514750000000000
C       3.601510000000000      0.178710000000000     -1.078430000000000
H       4.004930000000000      2.168040000000000     -1.893600000000000
H       3.547530000000000      2.118740000000000     -0.149080000000000
H       4.675780000000000      0.040950000000000     -0.826980000000000
H       2.998730000000000     -0.281270000000000     -0.266630000000000
C       3.310210000000000     -0.561050000000000     -2.382650000000000
H       1.691530000000000      3.123330000000000     -1.390710000000000
H       2.225000000000000     -0.532300000000000     -2.613860000000000
H       3.882890000000000     -0.111010000000000     -3.219800000000000
H       3.606210000000000     -1.626570000000000     -2.276650000000000
C       1.607840000000000     -0.850660000000000      2.281000000000000
C       1.077180000000000     -1.840080000000000      3.093250000000000
C      -0.264660000000000     -1.953250000000000      2.764160000000000
C      -0.492340000000000     -1.043820000000000      1.758370000000000
N       0.639930000000000     -0.380240000000000      1.480720000000000
C      -1.798210000000000     -0.759920000000000      1.043500000000000
N      -1.553860000000000      0.092170000000000     -0.137850000000000
C      -2.664330000000000      0.482660000000000     -1.025600000000000
H       1.604380000000000     -2.410950000000000      3.844360000000000
H       2.633070000000000     -0.499730000000000      2.284380000000000
H      -0.990930000000000     -2.626500000000000      3.198810000000000
H      -2.469760000000000     -0.252150000000000      1.765420000000000
H      -2.236430000000000     -1.721160000000000      0.719290000000000
C      -3.782250000000000      1.189780000000000     -0.237490000000000
C      -2.127270000000000      1.446320000000000     -2.100350000000000
C      -3.221010000000000     -0.770720000000000     -1.728340000000000
H      -3.384530000000000      2.091650000000000      0.275310000000000
H      -4.600390000000000      1.503040000000000     -0.921740000000000
H      -4.225040000000000      0.512830000000000      0.521570000000000
H      -1.308960000000000      0.971850000000000     -2.683770000000000
H      -2.937400000000000      1.730330000000000     -2.809340000000000
H      -1.732210000000000      2.375520000000000     -1.636820000000000
H      -2.415670000000000     -1.273140000000000     -2.308280000000000
H      -3.627480000000000     -1.497320000000000     -0.996530000000000
H      -4.043910000000000     -0.502890000000000     -2.423820000000000
Na      0.127990000000000     13.016800000000000      5.756170000000000
C      -1.620020000000000     10.576400000000000      4.425120000000000
C      -1.366440000000000     12.302270000000000      2.920310000000000
O      -1.749640000000000     11.969569999999999      4.237490000000000
C      -2.043350000000000     10.222830000000000      5.843510000000000
C      -1.493380000000000     13.807200000000000      2.727870000000000
H      -2.282240000000000     10.018570000000000      3.724220000000000
H      -0.560350000000000     10.258470000000001      4.298730000000000
H      -0.303470000000000     12.025380000000000      2.735220000000000
H      -2.033730000000000     11.807070000000000      2.178670000000000
H      -0.832880000000000     14.341810000000001      3.443260000000000
H      -1.195670000000000     14.079739999999999      1.693050000000000
H      -2.543840000000000     14.127370000000001      2.894710000000000
H      -3.101180000000000     10.517360000000000      6.011500000000000
H      -1.945240000000000      9.127850000000000      6.002170000000000
H      -1.398920000000000     10.751830000000000      6.577650000000000
Na     -4.352470000000000     12.378710000000000      4.249480000000000
Mg     -0.985690000000000      5.575830000000000      5.292410000000000
H      -0.627630000000000      2.876470000000000      6.724590000000000
C      -2.811790000000000      3.084290000000000      6.782250000000000
C      -1.402670000000000      3.642940000000000      6.928110000000000
C      -3.150320000000000      2.643090000000000      5.348740000000000
H      -2.932330000000000      2.233670000000000      7.484950000000000
H      -3.530880000000000      3.882320000000000      7.068520000000000
H      -4.190850000000000      2.251270000000000      5.353350000000000
H      -3.114150000000000      3.515310000000000      4.662000000000000
C      -2.226260000000000      1.552700000000000      4.807850000000000
H      -1.246340000000000      4.065810000000000      7.941510000000000
H      -1.190960000000000      1.935630000000000      4.693400000000000
H      -2.225720000000000      0.672560000000000      5.484160000000000
H      -2.582090000000000      1.234870000000000      3.805470000000000
C      -3.454130000000000      6.193560000000000      3.392210000000000
C      -3.542230000000000      6.877650000000000      2.191080000000000
C      -2.260470000000000      7.298680000000000      1.870700000000000
C      -1.443320000000000      6.836270000000000      2.878240000000000
N      -2.173390000000000      6.186080000000000      3.794660000000000
C       0.058150000000000      7.008660000000000      3.010330000000000
N       0.563770000000000      6.150360000000000      4.102970000000000
C       1.997860000000000      6.118800000000000      4.440780000000000
H      -4.439710000000000      7.054350000000000      1.614200000000000
H      -4.273220000000000      5.737580000000000      3.933410000000000
H      -1.958290000000000      7.863630000000000      0.999690000000000
H       0.260230000000000      8.080010000000000      3.213460000000000
H       0.530660000000000      6.703360000000000      2.057710000000000
C       2.516190000000000      7.526400000000000      4.786480000000000
C       2.193140000000000      5.201390000000000      5.661940000000000
C       2.794450000000000      5.533130000000000      3.258480000000000
H       1.943300000000000      7.951780000000000      5.638040000000000
H       3.590900000000000      7.485230000000000      5.067550000000000
H       2.425500000000000      8.210270000000000      3.917780000000000
H       1.821900000000000      4.175660000000000      5.448560000000000
H       3.271040000000000      5.130860000000000      5.930180000000000
H       1.641910000000000      5.594870000000000      6.542690000000000
H       2.422770000000000      4.513680000000000      3.013570000000000
H       2.698100000000000      6.166340000000000      2.353360000000000
H       3.874990000000000      5.462800000000000      3.506180000000000

-C 0
6-31g(d,p)
****
-H 0
6-31g(d,p)
****
-Mg 0
6-31g(d,p)
****
-N 0
6-31+g(d,p)
****
-Na 0
6-31g(d,p)
****
-O 0
6-31+g(d,p)
****


