%chk=lowest10_c1_a2_speciation7_speciationDFT1_speciationDFT96_rank08_E229.72.chk
%nprocshared=20
%mem=40GB
#p opt=loose PM7/gen scf=xqc 

lowest10_c1_a2_speciation7_speciationDFT1_speciationDFT96_rank08_E229.72 DFT input

0 1
Mg     -0.380420000000000     -0.110350000000000     -0.180950000000000
C       1.628480000000000      1.080160000000000     -2.776180000000000
C       1.307130000000000      2.647030000000000     -1.004370000000000
O       1.231880000000000      1.301400000000000     -1.435550000000000
C       3.108140000000000      1.350320000000000     -3.028740000000000
C       0.365590000000000      3.584130000000000     -1.756100000000000
H       1.451380000000000      0.001650000000000     -2.978590000000000
H       0.994050000000000      1.628460000000000     -3.498190000000000
H       0.974500000000000      2.655590000000000      0.052550000000000
H       2.351100000000000      3.019880000000000     -0.983030000000000
H      -0.666340000000000      3.176160000000000     -1.750450000000000
H       0.361740000000000      4.574030000000000     -1.254070000000000
H       0.705650000000000      3.729900000000000     -2.800100000000000
H       3.736190000000000      0.782150000000000     -2.313530000000000
H       3.361350000000000      1.028810000000000     -4.060820000000000
H       3.327500000000000      2.432480000000000     -2.940240000000000
H      -1.118140000000000     -1.245730000000000     -2.810390000000000
C      -2.126200000000000      0.697440000000000     -2.985760000000000
C      -1.717060000000000     -0.533250000000000     -2.206480000000000
C      -3.032740000000000      0.287240000000000     -4.132410000000000
H      -2.658020000000000      1.402460000000000     -2.314230000000000
H      -1.221180000000000      1.202130000000000     -3.376050000000000
H      -2.487600000000000     -0.422180000000000     -4.792470000000000
H      -3.931560000000000     -0.217570000000000     -3.718970000000000
C      -3.462530000000000      1.500270000000000     -4.941170000000000
H      -2.580870000000000     -1.024030000000000     -1.712110000000000
H      -4.017850000000000      2.213710000000000     -4.295450000000000
H      -2.572680000000000      2.009240000000000     -5.369670000000000
H      -4.123470000000000      1.167680000000000     -5.766770000000000
C       1.500310000000000     -2.742510000000000      3.451780000000000
C       0.342400000000000     -2.549840000000000      4.172830000000000
C      -0.093320000000000     -1.262810000000000      3.896790000000000
C       0.773990000000000     -0.745600000000000      3.030330000000000
N       1.779720000000000     -1.690610000000000      2.774840000000000
C       0.801910000000000      0.645460000000000      2.426070000000000
N      -0.290340000000000      0.982620000000000      1.494380000000000
C      -1.644020000000000      1.388750000000000      1.897740000000000
H      -0.119170000000000     -3.267830000000000      4.839240000000000
H       2.111260000000000     -3.633340000000000      3.435090000000000
H      -0.958650000000000     -0.791490000000000      4.327630000000000
H       1.733650000000000      0.699770000000000      1.822460000000000
H       0.904230000000000      1.410940000000000      3.214690000000000
C      -1.626820000000000      2.102810000000000      3.251090000000000
C      -2.162660000000000      2.374620000000000      0.831890000000000
C      -2.593870000000000      0.173000000000000      1.899880000000000
H      -0.934760000000000      2.971770000000000      3.198480000000000
H      -2.640830000000000      2.464920000000000      3.512600000000000
H      -1.281690000000000      1.421530000000000      4.049880000000000
H      -2.171980000000000      1.895870000000000     -0.167780000000000
H      -3.198790000000000      2.705290000000000      1.060690000000000
H      -1.510490000000000      3.271430000000000      0.767820000000000
H      -2.676620000000000     -0.271370000000000      0.882890000000000
H      -2.252740000000000     -0.626280000000000      2.571930000000000
H      -3.612630000000000      0.479700000000000      2.219450000000000
C       0.938140000000000     -2.978700000000000     -0.104140000000000
C       2.666570000000000     -1.385200000000000     -0.304850000000000
O       1.306400000000000     -1.686400000000000     -0.544410000000000
C      -0.484680000000000     -2.953490000000000      0.459450000000000
C       3.563430000000000     -2.065520000000000     -1.319180000000000
H       0.957870000000000     -3.663990000000000     -0.975020000000000
H       1.606270000000000     -3.380560000000000      0.687640000000000
H       2.795620000000000     -0.288160000000000     -0.392300000000000
H       2.994070000000000     -1.624790000000000      0.721340000000000
H       3.253320000000000     -1.780710000000000     -2.345540000000000
H       4.612700000000000     -1.749440000000000     -1.146370000000000
H       3.489600000000000     -3.165050000000000     -1.198030000000000
H      -0.556250000000000     -2.287000000000000      1.337610000000000
H      -1.208880000000000     -2.593070000000000     -0.298230000000000
H      -0.781510000000000     -3.974140000000000      0.776830000000000
Na     -9.890670000000000     -7.681020000000000     -9.772220000000001
C      -6.795660000000000     -7.419590000000000     -9.037670000000000
C      -7.884440000000000     -5.748760000000000     -7.802230000000000
O      -7.859660000000000     -6.488070000000000     -9.008430000000001
C      -7.227960000000000     -8.756869999999999     -8.444620000000000
C      -7.050300000000000     -4.475420000000000     -7.918200000000000
H      -6.516590000000000     -7.583930000000000    -10.100070000000001
H      -5.878660000000000     -7.040430000000000     -8.533189999999999
H      -8.939019999999999     -5.460830000000000     -7.604450000000000
H      -7.557470000000000     -6.348930000000000     -6.924330000000000
H      -7.432670000000000     -3.833900000000000     -8.739229999999999
H      -7.112820000000000     -3.906560000000000     -6.966850000000000
H      -5.986490000000000     -4.720300000000000     -8.116059999999999
H      -8.096550000000001     -9.162000000000001     -9.004799999999999
H      -6.389270000000000     -9.480420000000001     -8.512700000000001
H      -7.508510000000000     -8.639440000000000     -7.378180000000000
C     -10.796430000000001     -8.360540000000000     -6.608940000000000
C     -12.519470000000000     -8.939209999999999     -8.151999999999999
O     -11.281549999999999     -8.284219999999999     -7.937620000000000
C     -10.489240000000001     -9.784840000000001     -6.145780000000000
C     -13.676959999999999     -8.331020000000001     -7.360640000000000
H      -9.834940000000000     -7.805710000000000     -6.594470000000000
H     -11.457870000000000     -7.825720000000000     -5.896950000000000
H     -12.762230000000001     -8.807250000000000     -9.228339999999999
H     -12.441649999999999    -10.035560000000000     -7.999340000000000
H     -13.737430000000000     -7.239380000000000     -7.554260000000000
H     -14.627960000000000     -8.807499999999999     -7.678230000000000
H     -13.554539999999999     -8.513210000000001     -6.273960000000000
H      -9.803780000000000    -10.281510000000001     -6.864190000000000
H      -9.999689999999999     -9.746560000000001     -5.151140000000000
H     -11.418710000000001    -10.379759999999999     -6.040090000000000
Na     -7.981750000000000     -4.889310000000000    -10.782230000000000
C     -10.284000000000001     -6.521830000000000    -12.538970000000001
C     -11.234710000000000     -4.960710000000000    -11.076620000000000
O     -10.147500000000001     -5.831650000000000    -11.314050000000000
C      -8.940420000000000     -7.142150000000000    -12.901790000000000
C     -12.460850000000001     -5.706900000000000    -10.554259999999999
H     -11.023920000000000     -7.343890000000000    -12.433719999999999
H     -10.572260000000000     -5.844160000000000    -13.373770000000000
H     -10.914590000000000     -4.244530000000000    -10.289690000000000
H     -11.483910000000000     -4.344520000000000    -11.968579999999999
H     -12.203170000000000     -6.265320000000000     -9.630870000000000
H     -13.262890000000001     -4.976970000000000    -10.316830000000000
H     -12.847590000000000     -6.414210000000000    -11.315880000000000
H      -8.602470000000000     -7.827240000000000    -12.094910000000000
H      -9.032500000000001     -7.718290000000000    -13.846420000000000
H      -8.177390000000001     -6.348160000000000    -13.041390000000000
C      -7.192260000000000     -3.070950000000000    -13.438240000000000
C      -5.366040000000000     -4.347960000000000    -12.808140000000000
O      -6.730140000000000     -4.088070000000000    -12.583040000000000
C      -8.661260000000000     -2.819700000000000    -13.124800000000000
C      -4.939400000000000     -5.474300000000000    -11.876139999999999
H      -6.635870000000000     -2.122010000000000    -13.266109999999999
H      -7.115550000000000     -3.387230000000000    -14.502680000000000
H      -5.193710000000000     -4.683650000000000    -13.855530000000000
H      -4.748880000000000     -3.451570000000000    -12.573539999999999
H      -5.539250000000000     -6.385590000000000    -12.086480000000000
H      -3.864850000000000     -5.708430000000000    -12.024530000000000
H      -5.101320000000000     -5.175320000000000    -10.817740000000001
H      -8.777110000000000     -2.501910000000000    -12.066020000000000
H      -9.065260000000000     -2.026230000000000    -13.786890000000000
H      -9.244790000000000     -3.750120000000000    -13.283410000000000
Mg     -9.597130000000000     -3.317440000000000     -1.301960000000000
H     -11.396100000000001     -5.545080000000000     -0.160810000000000
C     -10.086250000000000     -6.707680000000000     -1.470020000000000
C     -10.920460000000000     -5.478540000000000     -1.160960000000000
C     -10.984389999999999     -7.940630000000000     -1.505450000000000
H      -9.586320000000001     -6.569740000000000     -2.453570000000000
H      -9.304480000000000     -6.819360000000000     -0.686940000000000
H     -11.486499999999999     -8.058130000000000     -0.520340000000000
H     -11.759530000000000     -7.807420000000000     -2.291690000000000
C     -10.182560000000000     -9.197880000000000     -1.806330000000000
H     -11.675789999999999     -5.289370000000000     -1.952140000000000
H      -9.683370000000000     -9.106640000000001     -2.793450000000000
H      -9.414930000000000     -9.360880000000000     -1.020370000000000
H     -10.868480000000000    -10.070029999999999     -1.827130000000000
C     -10.824299999999999     -0.942440000000000      0.404070000000000
C     -10.314430000000000      0.295420000000000      0.759120000000000
C      -9.037760000000000      0.375820000000000      0.223060000000000
C      -8.817560000000000     -0.820840000000000     -0.422790000000000
N      -9.901650000000000     -1.600710000000000     -0.316150000000000
C      -7.570450000000000     -1.255600000000000     -1.172990000000000
N      -7.687140000000000     -2.676930000000000     -1.563520000000000
C      -6.602700000000000     -3.363540000000000     -2.287740000000000
H     -10.816670000000000      1.057030000000000      1.340120000000000
H     -11.804000000000000     -1.329810000000000      0.653160000000000
H      -8.348300000000000      1.204690000000000      0.302480000000000
H      -6.698820000000000     -1.127280000000000     -0.503730000000000
H      -7.469050000000000     -0.606960000000000     -2.066780000000000
C      -5.349300000000000     -3.440930000000000     -1.394900000000000
C      -7.057890000000000     -4.797280000000000     -2.616260000000000
C      -6.278390000000000     -2.634170000000000     -3.602990000000000
H      -5.585510000000000     -3.977550000000000     -0.449600000000000
H      -4.529810000000000     -3.984060000000000     -1.911830000000000
H      -4.972940000000000     -2.429980000000000     -1.138390000000000
H      -7.957390000000000     -4.785290000000000     -3.268300000000000
H      -6.252840000000000     -5.352020000000000     -3.148090000000000
H      -7.304610000000000     -5.355050000000000     -1.687490000000000
H      -7.183180000000000     -2.576920000000000     -4.245630000000000
H      -5.916220000000000     -1.605340000000000     -3.406930000000000
H      -5.481240000000000     -3.171680000000000     -4.160360000000000

-C 0
6-31g(d,p)
****
-H 0
6-31g(d,p)
****
-Mg 0
6-31g(d,p)
****
-N 0
6-31+g(d,p)
****
-Na 0
6-31g(d,p)
****
-O 0
6-31+g(d,p)
****


