%chk=lowest10_c1_a2_speciation7_speciationDFT0_speciationDFT37b_rank03_E204.80.chk
%nprocshared=20
%mem=40GB
#p opt=loose PM7/gen scf=xqc 

lowest10_c1_a2_speciation7_speciationDFT0_speciationDFT37b_rank03_E204.80 DFT input

0 1
Mg     -0.406110000000000      0.284470000000000      0.218920000000000
C      -0.534310000000000     -1.825600000000000      2.603280000000000
C      -0.544990000000000      0.411470000000000      3.429090000000000
O      -0.025900000000000     -0.510620000000000      2.494920000000000
C      -2.047980000000000     -1.930260000000000      2.421690000000000
C      -0.024770000000000      0.147780000000000      4.832650000000000
H      -0.079880000000000     -2.393360000000000      1.771410000000000
H      -0.180140000000000     -2.330240000000000      3.522340000000000
H      -0.177260000000000      1.412940000000000      3.115280000000000
H      -1.651560000000000      0.484280000000000      3.398490000000000
H       1.081910000000000      0.060690000000000      4.807560000000000
H      -0.311180000000000      0.989190000000000      5.496810000000000
H      -0.465380000000000     -0.787570000000000      5.232140000000000
H      -2.376310000000000     -1.337980000000000      1.544510000000000
H      -2.324140000000000     -2.993250000000000      2.259160000000000
H      -2.573690000000000     -1.570380000000000      3.327890000000000
H      -2.837440000000000      0.905860000000000     -0.433900000000000
C      -1.822570000000000      2.794400000000000     -0.032980000000000
C      -2.165530000000000      1.361800000000000      0.320130000000000
C      -1.057090000000000      2.855850000000000     -1.359840000000000
H      -2.773890000000000      3.358320000000000     -0.097680000000000
H      -1.184750000000000      3.231520000000000      0.767750000000000
H      -0.062480000000000      2.378460000000000     -1.238050000000000
H      -1.609240000000000      2.308770000000000     -2.152710000000000
C      -0.874020000000000      4.299340000000000     -1.811550000000000
H      -2.616940000000000      1.289980000000000      1.329700000000000
H      -1.870390000000000      4.759790000000000     -1.983880000000000
H      -0.326560000000000      4.886400000000000     -1.044290000000000
H      -0.302690000000000      4.326230000000000     -2.763100000000000
C       2.642160000000000      1.840470000000000     -1.428480000000000
C       2.432790000000000      1.915100000000000     -0.064790000000000
C       2.155870000000000      0.631540000000000      0.363540000000000
C       2.177540000000000     -0.140340000000000     -0.720140000000000
N       2.508140000000000      0.631980000000000     -1.844010000000000
C       1.886640000000000     -1.620110000000000     -0.784440000000000
N       0.458400000000000     -1.900210000000000     -0.554360000000000
C      -0.392630000000000     -2.201930000000000     -1.731650000000000
H       2.448780000000000      2.812070000000000      0.544030000000000
H       2.873310000000000      2.665780000000000     -2.082430000000000
H       1.944260000000000      0.329670000000000      1.375800000000000
H       2.482790000000000     -2.133970000000000     -0.000630000000000
H       2.225040000000000     -2.006280000000000     -1.759140000000000
C       0.074140000000000     -3.497530000000000     -2.423140000000000
C      -1.830760000000000     -2.427810000000000     -1.222410000000000
C      -0.418320000000000     -1.033750000000000     -2.740910000000000
H       0.138810000000000     -4.323050000000000     -1.682530000000000
H      -0.643720000000000     -3.791210000000000     -3.219140000000000
H       1.058950000000000     -3.377420000000000     -2.913250000000000
H      -2.231600000000000     -1.504660000000000     -0.755920000000000
H      -2.515610000000000     -2.704890000000000     -2.054240000000000
H      -1.856430000000000     -3.239200000000000     -0.463450000000000
H      -0.863450000000000     -0.123910000000000     -2.285080000000000
H       0.599790000000000     -0.786010000000000     -3.097670000000000
H      -1.028750000000000     -1.302580000000000     -3.630960000000000
Na     -2.336500000000000     -7.585800000000000      2.698130000000000
C      -0.846230000000000     -6.377960000000000      5.246510000000000
C      -0.122690000000000     -8.604089999999999      5.086380000000000
O      -1.195240000000000     -7.701910000000000      4.890970000000000
C      -0.251110000000000     -5.634030000000000      4.055410000000000
C      -0.149350000000000     -9.197089999999999      6.492810000000000
H      -1.774310000000000     -5.852360000000000      5.556440000000000
H      -0.160620000000000     -6.334670000000000      6.122540000000000
H      -0.239170000000000     -9.431950000000001      4.354620000000000
H       0.868230000000000     -8.143190000000001      4.877730000000000
H      -1.103490000000000     -9.735360000000000      6.670240000000000
H       0.687700000000000     -9.917210000000001      6.603930000000000
H      -0.035120000000000     -8.400399999999999      7.256480000000000
H      -0.974280000000000     -5.613990000000000      3.213260000000000
H      -0.018480000000000     -4.591820000000000      4.353210000000000
H       0.685550000000000     -6.121750000000000      3.717220000000000
C       0.530290000000000     -8.225059999999999      1.068170000000000
C      -1.340290000000000     -8.279210000000001     -0.408320000000000
O      -0.879380000000000     -8.228990000000000      0.930440000000000
C       1.206660000000000     -6.999350000000000      0.452190000000000
C      -0.950520000000000     -9.563110000000000     -1.140260000000000
H       0.738220000000000     -8.190899999999999      2.158180000000000
H       0.981850000000000     -9.173240000000000      0.710770000000000
H      -2.450270000000000     -8.263270000000000     -0.358690000000000
H      -1.057110000000000     -7.371060000000000     -0.979730000000000
H      -1.270890000000000    -10.446560000000000     -0.549840000000000
H      -1.453400000000000     -9.588320000000000     -2.129510000000000
H       0.143230000000000     -9.605240000000000     -1.316650000000000
H       0.751520000000000     -6.068820000000000      0.852310000000000
H       2.286510000000000     -7.012020000000000      0.709810000000000
H       1.124880000000000     -7.011150000000000     -0.653380000000000
Na     -3.093970000000000     -8.673299999999999      5.971440000000000
C      -5.211840000000000     -8.109680000000001      3.472310000000000
C      -4.221200000000000    -10.226319999999999      3.327840000000000
O      -4.072890000000000     -8.891489999999999      3.768030000000000
C      -5.142740000000000     -6.820260000000000      4.281610000000000
C      -3.963430000000000    -10.365489999999999      1.828770000000000
H      -5.219480000000000     -7.838090000000000      2.395040000000000
H      -6.159060000000000     -8.624459999999999      3.749820000000000
H      -3.457240000000000    -10.833500000000001      3.859420000000000
H      -5.206800000000000    -10.656820000000000      3.611870000000000
H      -2.951760000000000     -9.985060000000001      1.578420000000000
H      -4.022000000000000    -11.436610000000000      1.542560000000000
H      -4.721680000000000     -9.805980000000000      1.243850000000000
H      -4.208830000000000     -6.266640000000000      4.044990000000000
H      -6.013180000000000     -6.174650000000000      4.040000000000000
H      -5.159210000000000     -7.048550000000000      5.367770000000000
C      -5.624040000000000     -9.150580000000000      8.057320000000001
C      -4.407130000000000     -7.300130000000000      8.733960000000000
O      -4.576350000000000     -8.270560000000000      7.729650000000000
C      -5.735100000000000    -10.188590000000000      6.948420000000000
C      -3.283610000000000     -6.366120000000000      8.304280000000000
H      -5.411840000000000     -9.685689999999999      9.010370000000000
H      -6.592040000000000     -8.604369999999999      8.117200000000000
H      -5.331630000000000     -6.692470000000000      8.858290000000000
H      -4.113610000000000     -7.775080000000000      9.697139999999999
H      -3.547730000000000     -5.875470000000000      7.343030000000000
H      -3.119500000000000     -5.584160000000000      9.074430000000000
H      -2.342000000000000     -6.940690000000000      8.166300000000000
H      -4.782990000000000    -10.755000000000001      6.858340000000000
H      -6.559050000000000    -10.898619999999999      7.167860000000000
H      -5.943500000000000     -9.685860000000000      5.981380000000000
Mg     -1.371530000000000    -14.061400000000001      2.940650000000000
H      -4.044820000000000    -15.162570000000001      4.196970000000000
C      -3.371460000000000    -16.967089999999999      3.151210000000000
C      -3.502120000000000    -15.458080000000001      3.276330000000000
C      -2.632570000000000    -17.603950000000001      4.336490000000000
H      -4.394420000000000    -17.393860000000000      3.093210000000000
H      -2.836470000000000    -17.212109999999999      2.209060000000000
H      -3.164430000000000    -17.375309999999999      5.285640000000000
H      -2.644400000000000    -18.704020000000000      4.185660000000000
C      -1.172490000000000    -17.160990000000002      4.452930000000000
H      -4.010330000000000    -15.037200000000000      2.381960000000000
H      -1.103070000000000    -16.081289999999999      4.694920000000000
H      -0.682370000000000    -17.733039999999999      5.270240000000000
H      -0.625050000000000    -17.363540000000000      3.507600000000000
C      -0.007230000000000    -13.225120000000000      5.686830000000000
C       1.291630000000000    -12.853300000000001      5.992940000000000
C       2.018180000000000    -12.912929999999999      4.813450000000000
C       1.137450000000000    -13.338390000000000      3.843790000000000
N      -0.080170000000000    -13.507989999999999      4.376110000000000
C       1.421840000000000    -13.586440000000000      2.374370000000000
N       0.270500000000000    -14.277139999999999      1.755640000000000
C       0.302240000000000    -14.685820000000000      0.340000000000000
H       1.668470000000000    -12.566570000000000      6.965340000000000
H      -0.839280000000000    -13.280550000000000      6.376650000000000
H       3.067260000000000    -12.686769999999999      4.681320000000000
H       1.607280000000000    -12.604550000000000      1.891810000000000
H       2.319430000000000    -14.228040000000000      2.296650000000000
C       1.390850000000000    -15.757500000000000      0.133190000000000
C      -1.060580000000000    -15.302360000000000     -0.023200000000000
C       0.563710000000000    -13.477620000000000     -0.576010000000000
H       1.196810000000000    -16.632960000000001      0.791540000000000
H       1.405130000000000    -16.107500000000002     -0.920970000000000
H       2.399530000000000    -15.361549999999999      0.367370000000000
H      -1.877090000000000    -14.560040000000001      0.105560000000000
H      -1.065680000000000    -15.645560000000000     -1.081910000000000
H      -1.279080000000000    -16.178360000000001      0.623470000000000
H      -0.220960000000000    -12.706310000000000     -0.428470000000000
H       1.554340000000000    -13.024600000000000     -0.366000000000000
H       0.557350000000000    -13.790500000000000     -1.642550000000000

-C 0
6-31g(d,p)
****
-H 0
6-31g(d,p)
****
-Mg 0
6-31g(d,p)
****
-N 0
6-31+g(d,p)
****
-Na 0
6-31g(d,p)
****
-O 0
6-31+g(d,p)
****


