%chk=lowest10_c1_a2_speciation0_speciationDFT0_speciationDFT37b_rank10_E164.74.chk
%nprocshared=20
%mem=40GB
#p opt=loose PM7/gen scf=xqc 

lowest10_c1_a2_speciation0_speciationDFT0_speciationDFT37b_rank10_E164.74 DFT input

0 1
Mg     -0.106650000000000      0.353380000000000     -0.337100000000000
C      -3.117160000000000     -0.504850000000000      0.256420000000000
C      -2.866180000000000      1.866000000000000      0.323560000000000
O      -2.327910000000000      0.601820000000000      0.646680000000000
C      -3.381730000000000     -0.587930000000000     -1.246490000000000
C      -4.065730000000000      2.207040000000000      1.192070000000000
H      -2.527010000000000     -1.401170000000000      0.519280000000000
H      -4.044480000000000     -0.586080000000000      0.857280000000000
H      -2.068460000000000      2.609340000000000      0.542140000000000
H      -3.084330000000000      1.982180000000000     -0.757970000000000
H      -3.805120000000000      2.053580000000000      2.260480000000000
H      -4.347990000000000      3.268070000000000      1.032250000000000
H      -4.926680000000000      1.564040000000000      0.920250000000000
H      -2.447420000000000     -0.414940000000000     -1.816580000000000
H      -3.768970000000000     -1.598440000000000     -1.494070000000000
H      -4.142690000000000      0.158160000000000     -1.548830000000000
H       0.120410000000000      0.770600000000000     -2.886840000000000
C       0.844690000000000      2.584120000000000     -1.915450000000000
C      -0.167180000000000      1.468230000000000     -2.075340000000000
C       2.211760000000000      2.020470000000000     -1.510910000000000
H       0.907030000000000      3.118460000000000     -2.883870000000000
H       0.499970000000000      3.287120000000000     -1.124250000000000
H       2.148260000000000      1.586130000000000     -0.491420000000000
H       2.523450000000000      1.217060000000000     -2.211050000000000
C       3.273750000000000      3.112720000000000     -1.530770000000000
H      -1.185390000000000      1.867060000000000     -2.255270000000000
H       3.373230000000000      3.510030000000000     -2.563590000000000
H       3.000360000000000      3.941290000000000     -0.843920000000000
H       4.252310000000000      2.691750000000000     -1.218040000000000
C       2.756740000000000      0.861670000000000      2.107210000000000
C       1.555540000000000      1.531500000000000      2.241090000000000
C       0.560020000000000      0.577980000000000      2.155470000000000
C       1.169990000000000     -0.586910000000000      1.951170000000000
N       2.560430000000000     -0.397320000000000      1.944910000000000
C       0.512900000000000     -1.928990000000000      1.739540000000000
N      -0.164570000000000     -1.997270000000000      0.432450000000000
C       0.511270000000000     -2.727690000000000     -0.668200000000000
H       1.420390000000000      2.601070000000000      2.355710000000000
H       3.738070000000000      1.308190000000000      2.118690000000000
H      -0.500400000000000      0.757080000000000      2.220870000000000
H      -0.239520000000000     -2.086400000000000      2.541390000000000
H       1.274090000000000     -2.718480000000000      1.845760000000000
C       0.667360000000000     -4.218980000000000     -0.315860000000000
C      -0.387520000000000     -2.626860000000000     -1.917570000000000
C       1.884350000000000     -2.112340000000000     -1.013090000000000
H      -0.313910000000000     -4.645340000000000     -0.017320000000000
H       1.048850000000000     -4.786650000000000     -1.191740000000000
H       1.392800000000000     -4.376590000000000      0.503280000000000
H      -0.492300000000000     -1.571320000000000     -2.241960000000000
H       0.041450000000000     -3.196530000000000     -2.771570000000000
H      -1.402450000000000     -3.026720000000000     -1.705690000000000
H       1.772010000000000     -1.070810000000000     -1.382030000000000
H       2.554940000000000     -2.103540000000000     -0.132480000000000
H       2.385900000000000     -2.704310000000000     -1.810070000000000
Na      4.052160000000000     -3.880860000000000     11.751770000000000
C       6.477090000000000     -4.115690000000000     13.909640000000000
C       6.774720000000000     -5.631820000000000     12.200430000000001
O       5.857840000000000     -5.131930000000000     13.150290000000000
C       5.486220000000000     -3.584950000000000     14.936290000000000
C       6.097470000000000     -6.717180000000000     11.375529999999999
H       7.357260000000000     -4.515620000000000     14.462980000000000
H       6.779430000000000     -3.264480000000000     13.257980000000000
H       7.099100000000000     -4.827890000000000     11.500890000000000
H       7.655700000000000     -6.088920000000000     12.706200000000001
H       5.217010000000000     -6.299590000000000     10.842230000000001
H       6.811960000000000     -7.120130000000000     10.626680000000000
H       5.764180000000000     -7.546190000000000     12.035740000000001
H       5.165350000000000     -4.402250000000000     15.616640000000000
H       5.963460000000000     -2.783350000000000     15.539170000000000
H       4.593390000000000     -3.165930000000000     14.425380000000001
Na      5.585560000000000     -7.114510000000000     14.864820000000000
Mg      2.534800000000000     -5.783950000000000      7.249930000000000
H       2.015250000000000     -8.235370000000000      5.337410000000000
C       0.927840000000000     -6.682710000000000      4.237950000000000
C       1.412530000000000     -7.324220000000000      5.527350000000000
C       2.075900000000000     -6.280140000000000      3.302580000000000
H       0.278600000000000     -7.416230000000000      3.716020000000000
H       0.318330000000000     -5.786170000000000      4.480060000000000
H       2.688490000000000     -7.170960000000000      3.043480000000000
H       1.621810000000000     -5.886420000000000      2.370550000000000
C       2.981260000000000     -5.191220000000000      3.882160000000000
H       0.551740000000000     -7.566680000000000      6.187210000000000
H       3.531580000000000     -5.564260000000000      4.769530000000000
H       3.724780000000000     -4.888230000000000      3.113550000000000
H       2.386690000000000     -4.296270000000000      4.164940000000000
C       5.708200000000000     -5.890440000000000      7.118840000000000
C       6.676990000000000     -4.993160000000000      7.537560000000000
C       6.012030000000000     -3.899800000000000      8.071569999999999
C       4.667730000000000     -4.167620000000000      7.936680000000000
N       4.496460000000000     -5.372930000000000      7.377930000000000
C       3.499760000000000     -3.290060000000000      8.345370000000001
N       2.244960000000000     -3.843250000000000      7.793390000000000
C       0.957400000000000     -3.157280000000000      8.001950000000001
H       7.748580000000000     -5.120700000000000      7.465570000000000
H       5.880900000000000     -6.855300000000000      6.660080000000000
H       6.455850000000000     -3.009160000000000      8.494420000000000
H       3.468670000000000     -3.256170000000000      9.452740000000000
H       3.665440000000000     -2.276100000000000      7.936240000000000
C       0.976980000000000     -1.790250000000000      7.289860000000000
C      -0.160640000000000     -4.012590000000000      7.379420000000000
C       0.668140000000000     -2.972600000000000      9.502219999999999
H       1.180410000000000     -1.926190000000000      6.204570000000000
H       0.000580000000000     -1.272710000000000      7.402070000000000
H       1.757860000000000     -1.125350000000000      7.710850000000000
H      -0.215450000000000     -5.008420000000000      7.868940000000000
H      -1.147880000000000     -3.512360000000000      7.496650000000000
H       0.021160000000000     -4.165560000000000      6.294610000000000
H       0.652740000000000     -3.956910000000000     10.017239999999999
H       1.436700000000000     -2.331350000000000      9.980630000000000
H      -0.317450000000000     -2.480190000000000      9.649419999999999

-C 0
6-31g(d,p)
****
-H 0
6-31g(d,p)
****
-Mg 0
6-31g(d,p)
****
-N 0
6-31+g(d,p)
****
-Na 0
6-31g(d,p)
****
-O 0
6-31+g(d,p)
****


