%chk=lowest10_c1_a2_speciation0_speciationDFT0_speciationDFT1_rank08_E178.71.chk
%nprocshared=20
%mem=40GB
#p opt=loose PM7/gen scf=xqc 

lowest10_c1_a2_speciation0_speciationDFT0_speciationDFT1_rank08_E178.71 DFT input

0 1
Mg      0.488220000000000     -0.411240000000000     -0.384970000000000
H      -0.374420000000000     -2.444250000000000     -2.411450000000000
C      -1.517490000000000     -3.135560000000000     -0.672960000000000
C      -0.260960000000000     -2.585940000000000     -1.317260000000000
C      -1.801570000000000     -4.523680000000000     -1.232660000000000
H      -1.370300000000000     -3.186850000000000      0.428050000000000
H      -2.364920000000000     -2.447180000000000     -0.885770000000000
H      -1.933220000000000     -4.452880000000000     -2.334450000000000
H      -0.937480000000000     -5.188790000000000     -1.014320000000000
C      -3.057600000000000     -5.120190000000000     -0.617060000000000
H       0.634870000000000     -3.192940000000000     -1.069660000000000
H      -2.938250000000000     -5.214700000000000      0.483210000000000
H      -3.935880000000000     -4.477630000000000     -0.839280000000000
H      -3.228460000000000     -6.127550000000000     -1.049560000000000
C       2.278310000000000      1.334530000000000     -2.337140000000000
C       2.696720000000000      2.653350000000000     -2.258500000000000
C       2.165210000000000      3.174360000000000     -1.088960000000000
C       1.438300000000000      2.160660000000000     -0.510780000000000
N       1.517060000000000      1.056730000000000     -1.268510000000000
C       0.661170000000000      2.206140000000000      0.790580000000000
N      -0.133150000000000      0.972290000000000      0.957050000000000
C      -1.010270000000000      0.789680000000000      2.127760000000000
H       3.321880000000000      3.176580000000000     -2.968000000000000
H       2.522140000000000      0.629660000000000     -3.123360000000000
H       2.286200000000000      4.177850000000000     -0.704560000000000
H      -0.015320000000000      3.079540000000000      0.760930000000000
H       1.397170000000000      2.310680000000000      1.613680000000000
C      -2.152840000000000      1.821990000000000      2.081080000000000
C      -1.625520000000000     -0.621050000000000      2.080640000000000
C      -0.212460000000000      0.936760000000000      3.435140000000000
H      -2.739300000000000      1.702540000000000      1.143500000000000
H      -2.837240000000000      1.692870000000000      2.945760000000000
H      -1.762030000000000      2.858500000000000      2.117750000000000
H      -0.834020000000000     -1.399000000000000      2.128720000000000
H      -2.314030000000000     -0.775970000000000      2.941790000000000
H      -2.207690000000000     -0.765950000000000      1.145600000000000
H       0.616300000000000      0.196760000000000      3.467450000000000
H       0.214260000000000      1.956090000000000      3.529180000000000
H      -0.873380000000000      0.769560000000000      4.311580000000000
Na      2.927070000000000     -9.876580000000001      6.580640000000000
C       2.033090000000000    -12.943910000000001      7.207070000000000
C       0.591530000000000    -11.464560000000001      8.227729999999999
O       1.948180000000000    -11.803940000000001      8.035320000000000
C       3.497550000000000    -13.308960000000001      7.008380000000000
C       0.506690000000000    -10.226860000000000      9.109730000000001
H       1.527400000000000    -13.816030000000000      7.680890000000000
H       1.595710000000000    -12.736620000000000      6.203890000000000
H       0.101560000000000    -11.222670000000001      7.257000000000000
H       0.049010000000000    -12.288629999999999      8.744890000000000
H       1.026800000000000     -9.374020000000000      8.623780000000000
H      -0.557600000000000     -9.952920000000001      9.270530000000001
H       0.978410000000000    -10.427650000000000     10.095310000000000
H       3.971810000000000    -13.534850000000000      7.987080000000000
H       3.576020000000000    -14.205019999999999      6.356700000000000
H       4.039820000000000    -12.467250000000000      6.527510000000000
Na      2.716370000000000    -12.689260000000001     10.397550000000001
Mg      1.419560000000000     -5.053600000000000      7.383100000000000
H       0.366320000000000     -2.782990000000000      9.305440000000001
C       0.968200000000000     -1.556780000000000      7.592250000000000
C       1.135490000000000     -2.758630000000000      8.507080000000000
C      -0.402220000000000     -1.517460000000000      6.902380000000000
H       1.087860000000000     -0.641100000000000      8.208080000000001
H       1.768450000000000     -1.567210000000000      6.821940000000000
H      -1.212580000000000     -1.496710000000000      7.663170000000000
H      -0.451980000000000     -0.578040000000000      6.314650000000000
C      -0.635050000000000     -2.686340000000000      5.942740000000000
H       2.151920000000000     -2.765210000000000      8.956510000000000
H      -0.683350000000000     -3.647450000000000      6.493580000000000
H      -1.602060000000000     -2.538050000000000      5.415170000000000
H       0.173460000000000     -2.736290000000000      5.182410000000000
C      -1.287140000000000     -6.714190000000000      7.269670000000000
C      -1.695390000000000     -7.754560000000000      6.450970000000000
C      -0.657560000000000     -8.003349999999999      5.565710000000000
C       0.329380000000000     -7.091630000000000      5.868160000000000
N      -0.053090000000000     -6.332640000000000      6.904200000000000
C       1.674620000000000     -6.918150000000000      5.189310000000000
N       2.312040000000000     -5.670170000000000      5.659800000000000
C       3.613890000000000     -5.234460000000000      5.124170000000000
H      -2.641490000000000     -8.276590000000001      6.494540000000000
H      -1.854900000000000     -6.271680000000000      8.078020000000000
H      -0.631650000000000     -8.750679999999999      4.784550000000000
H       2.297500000000000     -7.801890000000000      5.433300000000000
H       1.508900000000000     -6.856980000000000      4.097530000000000
C       3.474870000000000     -4.909720000000000      3.623760000000000
C       4.042780000000000     -3.952680000000000      5.860470000000000
C       4.687560000000000     -6.316120000000000      5.337800000000000
H       2.702170000000000     -4.123960000000000      3.471870000000000
H       4.437050000000000     -4.541090000000000      3.208850000000000
H       3.180870000000000     -5.805710000000000      3.040750000000000
H       4.161600000000000     -4.142980000000000      6.948570000000000
H       5.013530000000000     -3.579420000000000      5.464330000000000
H       3.285270000000000     -3.151780000000000      5.726240000000000
H       4.790070000000000     -6.551150000000000      6.418790000000000
H       4.429500000000000     -7.247310000000000      4.792790000000000
H       5.671330000000000     -5.966630000000000      4.956220000000000

-C 0
6-31g(d,p)
****
-H 0
6-31g(d,p)
****
-Mg 0
6-31g(d,p)
****
-N 0
6-31+g(d,p)
****
-Na 0
6-31g(d,p)
****
-O 0
6-31+g(d,p)
****


