%chk=lowest10_c1_a2_speciation7_speciationDFT0_speciationDFT36_rank02_E221.21.chk
%nprocshared=20
%mem=40GB
#p opt=loose PM7/gen scf=xqc 

lowest10_c1_a2_speciation7_speciationDFT0_speciationDFT36_rank02_E221.21 DFT input

0 1
Mg      0.472070000000000      0.098560000000000     -0.620240000000000
C      -0.465470000000000     -0.814510000000000      2.902020000000000
C       0.730780000000000      1.156150000000000      2.963040000000000
O       0.640090000000000     -0.118820000000000      2.359440000000000
C      -0.333110000000000     -2.299810000000000      2.602260000000000
C       1.861210000000000      1.949040000000000      2.320570000000000
H      -0.517210000000000     -0.716270000000000      4.009280000000000
H      -1.410460000000000     -0.442860000000000      2.454800000000000
H      -0.212670000000000      1.728120000000000      2.839060000000000
H       0.957260000000000      1.059390000000000      4.045840000000000
H       1.667550000000000      2.101510000000000      1.239610000000000
H       1.945100000000000      2.943350000000000      2.808170000000000
H       2.821580000000000      1.406510000000000      2.443080000000000
H       0.604720000000000     -2.698960000000000      3.038760000000000
H      -1.203370000000000     -2.845250000000000      3.021310000000000
H      -0.309440000000000     -2.480600000000000      1.518610000000000
H       3.526460000000000      0.631100000000000      0.115630000000000
C       2.944700000000000      1.142400000000000     -1.948680000000000
C       2.947850000000000      0.221090000000000     -0.734740000000000
C       2.369900000000000      2.525410000000000     -1.612450000000000
H       3.991610000000000      1.241850000000000     -2.299420000000000
H       2.331340000000000      0.681510000000000     -2.755030000000000
H       1.300110000000000      2.438240000000000     -1.319200000000000
H       2.934480000000000      2.971110000000000     -0.766020000000000
C       2.481480000000000      3.463650000000000     -2.812070000000000
H       3.287080000000000     -0.800820000000000     -1.000400000000000
H       3.547410000000000      3.577110000000000     -3.104700000000000
H       1.907660000000000      3.065500000000000     -3.675730000000000
H       2.081080000000000      4.465320000000000     -2.548020000000000
C      -1.216540000000000      2.475600000000000      0.607250000000000
C      -2.556050000000000      2.556620000000000      0.944330000000000
C      -3.126540000000000      1.336970000000000      0.610390000000000
C      -2.112250000000000      0.560510000000000      0.100020000000000
N      -0.966880000000000      1.255850000000000      0.114370000000000
C      -2.195710000000000     -0.854430000000000     -0.444960000000000
N      -0.845170000000000     -1.443250000000000     -0.599830000000000
C      -0.667450000000000     -2.628260000000000     -1.463210000000000
H      -3.057880000000000      3.407480000000000      1.381350000000000
H      -0.474130000000000      3.256200000000000      0.733120000000000
H      -4.159680000000000      1.043920000000000      0.734640000000000
H      -2.773270000000000     -1.486820000000000      0.258870000000000
H      -2.724490000000000     -0.789600000000000     -1.415760000000000
C      -0.808590000000000     -2.254720000000000     -2.949720000000000
C       0.750320000000000     -3.192580000000000     -1.237730000000000
C      -1.690360000000000     -3.717690000000000     -1.083100000000000
H      -0.037690000000000     -1.508020000000000     -3.238710000000000
H      -0.675500000000000     -3.157850000000000     -3.584970000000000
H      -1.808710000000000     -1.834810000000000     -3.172450000000000
H       0.903920000000000     -3.491000000000000     -0.179590000000000
H       0.922430000000000     -4.091370000000000     -1.870610000000000
H       1.519900000000000     -2.436360000000000     -1.498510000000000
H      -1.594250000000000     -3.974850000000000     -0.005500000000000
H      -2.727270000000000     -3.368890000000000     -1.268620000000000
H      -1.528110000000000     -4.640410000000000     -1.679230000000000
Na     -3.296070000000000     -8.139810000000001      2.270980000000000
C      -1.802810000000000     -6.934920000000000      4.820310000000000
C      -1.079650000000000     -9.161149999999999      4.660180000000000
O      -2.151990000000000     -8.258810000000000      4.464510000000000
C      -1.207560000000000     -6.190800000000000      3.629170000000000
C      -1.106950000000000     -9.754230000000000      6.066570000000000
H      -2.730980000000000     -6.409590000000000      5.130440000000000
H      -1.117280000000000     -6.891770000000000      5.696390000000000
H      -1.195990000000000     -9.988910000000001      3.928290000000000
H      -0.088600000000000     -8.700340000000001      4.451940000000000
H      -2.061340000000000    -10.292130000000000      6.243700000000000
H      -0.270260000000000    -10.474710000000000      6.177890000000000
H      -0.992650000000000     -8.957610000000001      6.830300000000000
H      -1.930580000000000     -6.172170000000000      2.786910000000000
H      -0.975590000000000     -5.147690000000000      3.925770000000000
H      -0.270760000000000     -6.678370000000000      3.291220000000000
C      -0.427140000000000     -8.781409999999999      0.641620000000000
C      -2.297770000000000     -8.836349999999999     -0.834630000000000
O      -1.836850000000000     -8.785970000000001      0.504130000000000
C       0.248790000000000     -7.555050000000000      0.026050000000000
C      -1.908330000000000    -10.120450000000000     -1.566480000000000
H      -0.219030000000000     -8.747820000000001      1.731600000000000
H       0.024700000000000     -9.729320000000000      0.283760000000000
H      -3.407750000000000     -8.820060000000000     -0.785120000000000
H      -2.014340000000000     -7.928380000000000     -1.406110000000000
H      -2.229340000000000    -11.003790000000000     -0.976260000000000
H      -2.410890000000000    -10.145400000000000     -2.555930000000000
H      -0.814560000000000    -10.163160000000000     -1.742600000000000
H      -0.206180000000000     -6.624530000000000      0.426480000000000
H       1.328730000000000     -7.567730000000000      0.283260000000000
H       0.166840000000000     -7.566430000000000     -1.079480000000000
Na     -4.050940000000000     -9.232600000000000      5.545530000000000
C      -6.170050000000000     -8.667080000000000      3.045940000000000
C      -5.179670000000000    -10.783720000000001      2.901520000000000
O      -5.031190000000000     -9.448960000000000      3.341830000000000
C      -6.100940000000000     -7.377750000000000      3.855270000000000
C      -4.921380000000000    -10.922670000000000      1.402540000000000
H      -6.177560000000000     -8.395460000000000      1.968670000000000
H      -7.117340000000000     -9.181760000000001      3.323360000000000
H      -4.416080000000000    -11.391140000000000      3.433350000000000
H      -6.165490000000000    -11.214050000000000      3.185110000000000
H      -3.909640000000000    -10.542100000000000      1.152680000000000
H      -4.979830000000000    -11.993729999999999      1.116120000000000
H      -5.679440000000000    -10.363049999999999      0.817470000000000
H      -5.167150000000000     -6.824090000000000      3.618400000000000
H      -6.971520000000000     -6.732250000000000      3.613900000000000
H      -6.117000000000000     -7.606110000000000      4.941420000000000
C      -6.582110000000000     -9.707530000000000      7.631310000000000
C      -5.365250000000000     -7.857190000000000      8.307910000000000
O      -5.534490000000000     -8.827470000000000      7.303440000000000
C      -6.693340000000000    -10.745680000000000      6.522600000000000
C      -4.241740000000000     -6.923100000000000      7.878470000000000
H      -6.369770000000000    -10.242540000000000      8.584390000000001
H      -7.550130000000000     -9.161350000000001      7.691290000000000
H      -6.289760000000000     -7.249540000000000      8.432320000000001
H      -5.071750000000000     -8.332269999999999      9.271030000000000
H      -4.505820000000000     -6.432320000000000      6.917290000000000
H      -4.077770000000000     -6.141290000000000      8.648800000000000
H      -3.300100000000000     -7.497620000000000      7.740490000000000
H      -5.741210000000000    -11.312040000000000      6.432420000000000
H      -7.517190000000000    -11.455710000000000      6.742390000000000
H      -6.902020000000000    -10.243110000000000      5.555530000000000
Mg     -2.329150000000000    -14.617920000000000      2.513930000000000
H      -5.004150000000000    -15.721170000000001      3.771460000000000
C      -4.329880000000000    -17.524770000000000      2.725070000000000
C      -4.460860000000000    -16.015779999999999      2.850850000000000
C      -3.590730000000000    -18.161580000000001      3.910190000000000
H      -5.352720000000000    -17.951860000000000      2.666970000000000
H      -3.794820000000000    -17.769320000000000      1.782840000000000
H      -4.122640000000000    -17.933119999999999      4.859350000000000
H      -3.602040000000000    -19.261690000000002      3.759470000000000
C      -2.130910000000000    -17.717759999999998      4.026360000000000
H      -4.969110000000000    -15.594680000000000      1.956650000000000
H      -2.062160000000000    -16.637699999999999      4.266990000000000
H      -1.640560000000000    -18.288499999999999      4.844420000000000
H      -1.583330000000000    -17.921109999999999      3.081290000000000
C      -0.965170000000000    -13.781340000000000      5.259790000000000
C       0.333710000000000    -13.409670000000000      5.566670000000000
C       1.060450000000000    -13.469749999999999      4.387380000000000
C       0.180450000000000    -13.895149999999999      3.417270000000000
N      -1.037940000000000    -14.064370000000000      3.949680000000000
C       0.464880000000000    -14.143900000000000      1.948280000000000
N      -0.686690000000000    -14.833890000000000      1.329300000000000
C      -0.655350000000000    -15.242559999999999     -0.086260000000000
H       0.710150000000000    -13.122949999999999      6.539080000000000
H      -1.797530000000000    -13.836460000000001      5.949600000000000
H       2.109850000000000    -13.243810000000000      4.255650000000000
H       0.651540000000000    -13.162350000000000      1.465310000000000
H       1.362060000000000    -14.786320000000000      1.871060000000000
C       0.433140000000000    -16.314299999999999     -0.293510000000000
C      -2.018320000000000    -15.858980000000001     -0.448910000000000
C      -0.394110000000000    -14.034350000000000     -1.002350000000000
H       0.239430000000000    -17.189670000000000      0.365060000000000
H       0.446790000000000    -16.664470000000001     -1.347620000000000
H       1.441950000000000    -15.918310000000000     -0.059910000000000
H      -2.834710000000000    -15.116619999999999     -0.319560000000000
H      -2.024010000000000    -16.202030000000001     -1.507640000000000
H      -2.236530000000000    -16.735040000000001      0.197810000000000
H      -1.178710000000000    -13.263019999999999     -0.854540000000000
H       0.596590000000000    -13.581350000000000     -0.792640000000000
H      -0.400830000000000    -14.347220000000000     -2.068880000000000

-C 0
6-31g(d,p)
****
-H 0
6-31g(d,p)
****
-Mg 0
6-31g(d,p)
****
-N 0
6-31+g(d,p)
****
-Na 0
6-31g(d,p)
****
-O 0
6-31+g(d,p)
****


