%chk=lowest10_c1_a2_speciation7_speciationDFT0_speciationDFT1_rank08_E218.95.chk
%nprocshared=20
%mem=40GB
#p opt=loose PM7/gen scf=xqc 

lowest10_c1_a2_speciation7_speciationDFT0_speciationDFT1_rank08_E218.95 DFT input

0 1
Mg      0.671190000000000     -0.098240000000000      0.166140000000000
H       2.329420000000000      2.239400000000000     -0.718340000000000
C       1.311230000000000      1.764560000000000     -2.601010000000000
C       2.018310000000000      1.362770000000000     -1.322400000000000
C       2.277720000000000      2.542290000000000     -3.485340000000000
H       0.959770000000000      0.849670000000000     -3.126290000000000
H       0.426610000000000      2.388550000000000     -2.345390000000000
H       2.626610000000000      3.445290000000000     -2.938420000000000
H       3.155200000000000      1.900390000000000     -3.719190000000000
C       1.613600000000000      2.970950000000000     -4.784460000000000
H       2.865320000000000      0.671180000000000     -1.513650000000000
H       1.273130000000000      2.080040000000000     -5.353780000000000
H       0.743520000000000      3.627730000000000     -4.571830000000000
H       2.348390000000000      3.532130000000000     -5.397800000000000
C       1.501200000000000     -0.013890000000000      3.226760000000000
C       0.870950000000000     -0.507440000000000      4.358080000000000
C      -0.306890000000000     -1.102060000000000      3.933650000000000
C      -0.351880000000000     -0.940100000000000      2.569820000000000
N       0.743530000000000     -0.286340000000000      2.154490000000000
C      -1.430460000000000     -1.417720000000000      1.617570000000000
N      -1.198190000000000     -0.871700000000000      0.265360000000000
C      -2.134490000000000     -1.157340000000000     -0.836670000000000
H       1.228140000000000     -0.445930000000000      5.376130000000000
H       2.452250000000000      0.505030000000000      3.196910000000000
H      -1.052110000000000     -1.589680000000000      4.545510000000000
H      -2.407770000000000     -1.065640000000000      1.994690000000000
H      -1.394210000000000     -2.526480000000000      1.603390000000000
C      -3.498860000000000     -0.509150000000000     -0.534190000000000
C      -1.582170000000000     -0.544550000000000     -2.136820000000000
C      -2.296740000000000     -2.675150000000000     -1.034350000000000
H      -3.381630000000000      0.589960000000000     -0.409110000000000
H      -4.216900000000000     -0.696740000000000     -1.359970000000000
H      -3.943820000000000     -0.919830000000000      0.394060000000000
H      -0.602670000000000     -0.996600000000000     -2.401550000000000
H      -2.284660000000000     -0.722860000000000     -2.981940000000000
H      -1.447220000000000      0.552980000000000     -2.029540000000000
H      -1.310970000000000     -3.144220000000000     -1.242810000000000
H      -2.733890000000000     -3.150090000000000     -0.132370000000000
H      -2.977490000000000     -2.885700000000000     -1.886900000000000
Na     -3.156190000000000     -6.807600000000000      3.716880000000000
C      -1.662240000000000     -5.604900000000000      6.266620000000000
C      -0.938900000000000     -7.830660000000000      6.106500000000000
O      -2.011460000000000     -6.928630000000000      5.910830000000000
C      -1.066700000000000     -4.861420000000000      5.075650000000000
C      -0.966260000000000     -8.423600000000000      7.512890000000000
H      -2.590200000000000     -5.079150000000000      6.576740000000000
H      -0.976540000000000     -5.561590000000000      7.142600000000000
H      -1.055000000000000     -8.658320000000000      5.374530000000000
H       0.052140000000000     -7.369670000000000      5.898390000000000
H      -1.920740000000000     -8.961340000000000      7.689940000000000
H      -0.129640000000000     -9.144110000000000      7.624290000000000
H      -0.851960000000000     -7.626900000000000      8.276570000000000
H      -1.789810000000000     -4.840970000000000      4.233430000000000
H      -0.833500000000000     -3.820040000000000      5.374540000000000
H      -0.130060000000000     -5.348810000000000      4.737270000000000
C      -0.286840000000000     -7.451560000000000      2.088090000000000
C      -2.157310000000000     -7.505580000000000      0.611490000000000
O      -1.696550000000000     -7.455570000000000      1.950370000000000
C       0.389320000000000     -6.225460000000000      1.472800000000000
C      -1.767910000000000     -8.789650000000000     -0.120440000000000
H      -0.078730000000000     -7.417930000000000      3.178060000000000
H       0.164930000000000     -8.399390000000000      1.730040000000000
H      -3.267270000000000     -7.489090000000000      0.660850000000000
H      -1.873790000000000     -6.597520000000000      0.040100000000000
H      -2.089110000000000     -9.672980000000001      0.469710000000000
H      -2.270290000000000     -8.814480000000000     -1.109960000000000
H      -0.674120000000000     -8.832540000000000     -0.296370000000000
H      -0.065790000000000     -5.295180000000000      1.873640000000000
H       1.469280000000000     -6.238220000000000      1.729970000000000
H       0.307300000000000     -6.236800000000000      0.367240000000000
Na     -3.910140000000000     -7.902720000000000      6.991990000000000
C      -6.029540000000000     -7.336300000000000      4.492120000000000
C      -5.039310000000000     -9.452970000000001      4.347740000000000
O      -4.890740000000000     -8.118230000000001      4.788080000000000
C      -5.960390000000000     -6.046970000000000      5.301420000000000
C      -4.780830000000000     -9.591860000000000      2.848800000000000
H      -6.037010000000000     -7.064690000000000      3.414830000000000
H      -6.976870000000000     -7.850920000000000      4.769530000000000
H      -4.275880000000000    -10.060490000000000      4.879680000000000
H      -6.025220000000000     -9.883220000000000      4.631180000000000
H      -3.769060000000000     -9.211240000000000      2.599120000000000
H      -4.839240000000000    -10.662900000000000      2.562300000000000
H      -5.538810000000000     -9.032190000000000      2.263670000000000
H      -5.026660000000000     -5.493270000000000      5.064420000000000
H      -6.831040000000000     -5.401530000000000      5.060160000000000
H      -5.976300000000000     -6.275360000000000      6.387570000000000
C      -6.441600000000000     -8.376650000000000      9.077669999999999
C      -5.224760000000000     -6.526350000000000      9.754239999999999
O      -5.394020000000000     -7.496570000000000      8.749720000000000
C      -6.552900000000000     -9.414859999999999      7.969030000000000
C      -4.101250000000000     -5.592230000000000      9.324890000000000
H      -6.229210000000000     -8.911619999999999     10.030760000000001
H      -7.409630000000000     -7.830480000000000      9.137689999999999
H      -6.149270000000000     -5.918710000000000      9.878679999999999
H      -4.931270000000000     -7.001480000000000     10.717340000000000
H      -4.365320000000000     -5.101390000000000      8.363730000000000
H      -3.937340000000000     -4.810470000000000     10.095280000000001
H      -3.159600000000000     -6.166730000000000      9.186909999999999
H      -5.600760000000000     -9.981199999999999      7.878810000000000
H      -7.376710000000000    -10.124890000000001      8.188969999999999
H      -6.761690000000000     -8.912350000000000      7.001950000000000
Mg     -2.188470000000000    -13.286890000000000      3.960010000000000
H      -4.864140000000000    -14.390950000000000      5.218010000000000
C      -4.189500000000000    -16.194189999999999      4.171390000000000
C      -4.320610000000000    -14.685210000000000      4.297420000000000
C      -3.450260000000000    -16.830980000000000      5.356440000000000
H      -5.212300000000000    -16.621400000000001      4.113230000000000
H      -3.654420000000000    -16.438549999999999      3.229130000000000
H      -3.982190000000000    -16.602580000000000      6.305600000000000
H      -3.461370000000000    -17.931100000000001      5.205760000000000
C      -1.990540000000000    -16.386810000000001      5.472500000000000
H      -4.828880000000000    -14.264020000000000      3.403280000000000
H      -1.922050000000000    -15.306620000000001      5.712600000000000
H      -1.500100000000000    -16.957049999999999      6.290850000000000
H      -1.442900000000000    -16.590479999999999      4.527530000000000
C      -0.824620000000000    -12.450160000000000      6.705810000000000
C       0.474260000000000    -12.078580000000001      7.012910000000000
C       1.201130000000000    -12.138820000000001      5.833720000000000
C       0.321310000000000    -12.564220000000001      4.863470000000000
N      -0.897270000000000    -12.733280000000001      5.395810000000000
C       0.605840000000000    -12.813219999999999      3.394590000000000
N      -0.545840000000000    -13.502940000000001      2.775530000000000
C      -0.514650000000000    -13.911610000000000      1.359990000000000
H       0.850560000000000    -11.791860000000000      7.985340000000000
H      -1.657090000000000    -12.505179999999999      7.395550000000000
H       2.250600000000000    -11.912979999999999      5.702150000000000
H       0.792960000000000    -11.831820000000000      2.911480000000000
H       1.502830000000000    -13.455970000000001      3.317590000000000
C       0.573790000000000    -14.983370000000001      1.152580000000000
C      -1.877690000000000    -14.527979999999999      0.997560000000000
C      -0.253510000000000    -12.703390000000001      0.443880000000000
H       0.380200000000000    -15.858700000000001      1.811240000000000
H       0.587200000000000    -15.333610000000000      0.098480000000000
H       1.582650000000000    -14.587360000000000      1.385950000000000
H      -2.694030000000000    -13.785610000000000      1.127150000000000
H      -1.883610000000000    -14.870970000000000     -0.061180000000000
H      -2.095780000000000    -15.404059999999999      1.644300000000000
H      -1.038080000000000    -11.932050000000000      0.591800000000000
H       0.737220000000000    -12.250400000000001      0.653480000000000
H      -0.260360000000000    -13.016249999999999     -0.622650000000000

-C 0
6-31g(d,p)
****
-H 0
6-31g(d,p)
****
-Mg 0
6-31g(d,p)
****
-N 0
6-31+g(d,p)
****
-Na 0
6-31g(d,p)
****
-O 0
6-31+g(d,p)
****


