%chk=lowest10_c1_a2_speciation7_speciationDFT0_speciationDFT38_rank06_E220.21.chk
%nprocshared=20
%mem=40GB
#p opt=loose PM7/gen scf=xqc 

lowest10_c1_a2_speciation7_speciationDFT0_speciationDFT38_rank06_E220.21 DFT input

0 1
Mg      0.896940000000000     -0.421640000000000     -0.021920000000000
C      -1.573960000000000      0.723220000000000      1.862380000000000
C      -0.427240000000000      2.544970000000000      0.817710000000000
O      -0.425800000000000      1.176730000000000      1.166290000000000
C      -2.915600000000000      1.102640000000000      1.231020000000000
C      -0.330850000000000      3.457140000000000      2.031840000000000
H      -1.525660000000000     -0.383420000000000      1.839940000000000
H      -1.529900000000000      1.015960000000000      2.930940000000000
H       0.476580000000000      2.717820000000000      0.202460000000000
H      -1.272860000000000      2.808700000000000      0.152300000000000
H      -0.213050000000000      4.505750000000000      1.688050000000000
H       0.547080000000000      3.177430000000000      2.650170000000000
H      -1.251220000000000      3.381490000000000      2.643320000000000
H      -2.941710000000000      0.810520000000000      0.167440000000000
H      -3.102690000000000      2.191250000000000      1.324930000000000
H      -3.732880000000000      0.564230000000000      1.751340000000000
H       2.886070000000000     -0.058050000000000      1.728970000000000
C       3.805740000000000      0.471740000000000     -0.189300000000000
C       2.906570000000000     -0.421420000000000      0.681800000000000
C       3.339820000000000      1.934350000000000     -0.332610000000000
H       4.831570000000000      0.457160000000000      0.234290000000000
H       3.841230000000000      0.037800000000000     -1.211540000000000
H       4.069140000000000      2.469700000000000     -0.981540000000000
H       2.356240000000000      1.967040000000000     -0.843310000000000
C       3.255450000000000      2.688540000000000      0.994270000000000
H       3.276840000000000     -1.464880000000000      0.664970000000000
H       2.501040000000000      2.224520000000000      1.658400000000000
H       4.240850000000000      2.693640000000000      1.504420000000000
H       2.947970000000000      3.740830000000000      0.806280000000000
C      -0.997170000000000      1.905210000000000     -2.585930000000000
C       0.229710000000000      1.342550000000000     -2.854430000000000
C       0.166970000000000      0.013860000000000     -2.474660000000000
C      -1.047580000000000     -0.219560000000000     -1.967990000000000
N      -1.850260000000000      0.937580000000000     -2.035670000000000
C      -1.507720000000000     -1.518280000000000     -1.360440000000000
N      -0.648180000000000     -1.837830000000000     -0.212530000000000
C      -0.807200000000000     -3.149040000000000      0.462280000000000
H       1.085010000000000      1.861530000000000     -3.265520000000000
H      -1.269870000000000      2.937760000000000     -2.753770000000000
H       0.978910000000000     -0.701050000000000     -2.528180000000000
H      -1.460830000000000     -2.307940000000000     -2.133810000000000
H      -2.555750000000000     -1.392970000000000     -1.016210000000000
C      -0.388630000000000     -4.299790000000000     -0.473690000000000
C       0.092150000000000     -3.175580000000000      1.709250000000000
C      -2.271990000000000     -3.362920000000000      0.913660000000000
H       0.668910000000000     -4.180650000000000     -0.788630000000000
H      -0.496710000000000     -5.278410000000000      0.042090000000000
H      -1.027790000000000     -4.341500000000000     -1.378620000000000
H      -0.201720000000000     -2.379700000000000      2.425600000000000
H       0.010610000000000     -4.156070000000000      2.230870000000000
H       1.154110000000000     -3.019830000000000      1.425980000000000
H      -2.598040000000000     -2.547260000000000      1.593650000000000
H      -2.964460000000000     -3.394540000000000      0.046880000000000
H      -2.381360000000000     -4.327320000000000      1.457010000000000
Na      1.369090000000000     -9.182840000000001      4.235760000000000
C       0.528090000000000     -9.407330000000000      1.160040000000000
C      -0.081940000000000    -11.465400000000001      2.106730000000000
O       0.844850000000000    -10.396039999999999      2.121090000000000
C      -0.402320000000000     -8.353700000000000      1.752250000000000
C       0.357440000000000    -12.562700000000000      1.140720000000000
H       1.474040000000000     -8.908379999999999      0.860390000000000
H       0.097190000000000     -9.835860000000000      0.227150000000000
H      -0.119890000000000    -11.894140000000000      3.130950000000000
H      -1.117410000000000    -11.132460000000000      1.871740000000000
H       1.354690000000000    -12.956410000000000      1.426630000000000
H      -0.373300000000000    -13.397100000000000      1.174580000000000
H       0.404940000000000    -12.174620000000001      0.102380000000000
H       0.069140000000000     -7.879810000000000      2.638410000000000
H      -0.604960000000000     -7.570710000000000      0.993420000000000
H      -1.366460000000000     -8.809939999999999      2.055550000000000
C      -1.800690000000000     -9.611409999999999      5.321820000000000
C      -0.391840000000000     -8.752860000000000      7.041690000000000
O      -0.480360000000000     -9.326210000000000      5.748840000000000
C      -2.684940000000000     -8.371490000000000      5.180580000000000
C      -0.884580000000000     -9.677289999999999      8.154760000000000
H      -1.713140000000000    -10.058120000000001      4.309300000000000
H      -2.277330000000000    -10.392099999999999      5.949350000000000
H       0.687640000000000     -8.569860000000000      7.231230000000000
H      -0.872440000000000     -7.753850000000000      7.087330000000000
H      -0.362720000000000    -10.654680000000001      8.092390000000000
H      -0.666850000000000     -9.213780000000000      9.139620000000001
H      -1.980610000000000     -9.831310000000000      8.090130000000000
H      -2.193610000000000     -7.623920000000000      4.522780000000000
H      -3.655640000000000     -8.665660000000001      4.729190000000000
H      -2.898970000000000     -7.917850000000000      6.169280000000000
Na      3.017860000000000    -11.412450000000000      2.012730000000000
C       4.362840000000000     -9.522640000000001      4.411610000000000
C       3.497250000000000    -11.533239999999999      5.240520000000000
O       3.392880000000000    -10.536099999999999      4.244320000000000
C       4.436560000000000     -8.701300000000000      3.130460000000000
C       2.853070000000000    -11.095480000000000      6.554230000000000
H       4.066330000000000     -8.842260000000000      5.238440000000000
H       5.378540000000000     -9.939050000000000      4.596640000000000
H       2.943580000000000    -12.423679999999999      4.872620000000000
H       4.547020000000000    -11.867800000000001      5.394900000000000
H       1.791360000000000    -10.821450000000000      6.385190000000000
H       2.893920000000000    -11.932600000000001      7.282310000000000
H       3.391700000000000    -10.228550000000000      6.988400000000000
H       3.443320000000000     -8.260960000000001      2.897880000000000
H       5.174100000000000     -7.879930000000000      3.249620000000000
H       4.752030000000000     -9.343690000000000      2.282010000000000
C       6.043080000000000    -12.241669999999999      0.935290000000000
C       4.945800000000000    -11.053190000000001     -0.720500000000000
O       4.896940000000000    -11.490510000000000      0.615820000000000
C       5.916430000000000    -12.710610000000001      2.378530000000000
C       3.696800000000000    -10.226340000000000     -0.994330000000000
H       6.122840000000000    -13.142830000000000      0.286190000000000
H       6.959080000000000    -11.614310000000000      0.855260000000000
H       5.833430000000000    -10.403680000000000     -0.892930000000000
H       4.947920000000000    -11.919240000000000     -1.420160000000000
H       3.665730000000000     -9.351770000000000     -0.309780000000000
H       3.700650000000000     -9.863030000000000     -2.042930000000000
H       2.787220000000000    -10.843629999999999     -0.828940000000000
H       5.008930000000000    -13.341290000000001      2.497090000000000
H       6.808840000000000    -13.302519999999999      2.669240000000000
H       5.832350000000000    -11.833900000000000      3.053580000000000
Mg      0.866290000000000    -15.294230000000001      6.621320000000000
H       3.855880000000000    -16.366270000000000      6.579500000000000
C       3.024030000000000    -17.670480000000001      8.129799999999999
C       3.100080000000000    -16.344049999999999      7.390780000000000
C       2.663570000000000    -18.844349999999999      7.208980000000000
H       4.016210000000000    -17.863330000000001      8.588720000000000
H       2.271210000000000    -17.595210000000002      8.943099999999999
H       3.415750000000000    -18.935089999999999      6.395350000000000
H       2.694310000000000    -19.772459999999999      7.818090000000000
C       1.265530000000000    -18.727250000000002      6.598390000000000
H       3.326850000000000    -15.518300000000000      8.098970000000000
H       1.203120000000000    -17.856780000000001      5.914610000000000
H       1.044250000000000    -19.646070000000002      6.013650000000000
H       0.498230000000000    -18.625950000000000      7.395510000000000
C       0.240340000000000    -15.873570000000001      3.561120000000000
C      -0.947610000000000    -15.882470000000000      2.847950000000000
C      -1.960150000000000    -15.585590000000000      3.747420000000000
C      -1.350930000000000    -15.429670000000000      4.972510000000000
N      -0.025110000000000    -15.589750000000000      4.844970000000000
C      -2.004090000000000    -15.113270000000000      6.304020000000000
N      -1.019520000000000    -15.286070000000000      7.393070000000000
C      -1.400690000000000    -15.086399999999999      8.802130000000000
H      -1.064220000000000    -16.079409999999999      1.791230000000000
H       1.229760000000000    -16.059989999999999      3.162930000000000
H      -3.018150000000000    -15.507280000000000      3.535380000000000
H      -2.379090000000000    -14.069430000000001      6.262860000000000
H      -2.844940000000000    -15.816420000000001      6.455290000000000
C      -2.440810000000000    -16.146490000000000      9.215270000000000
C      -0.147870000000000    -15.268590000000000      9.677220000000000
C      -1.964550000000000    -13.672290000000000      9.024690000000000
H      -2.030160000000000    -17.168250000000000      9.057639999999999
H      -2.709840000000000    -16.038309999999999     10.287649999999999
H      -3.374250000000000    -16.050339999999998      8.624750000000001
H       0.629210000000000    -14.519140000000000      9.414750000000000
H      -0.400420000000000    -15.146480000000000     10.754099999999999
H       0.283150000000000    -16.282540000000001      9.537160000000000
H      -1.215110000000000    -12.908590000000000      8.728999999999999
H      -2.889270000000000    -13.513560000000000      8.432729999999999
H      -2.221590000000000    -13.521030000000000     10.095440000000000

-C 0
6-31g(d,p)
****
-H 0
6-31g(d,p)
****
-Mg 0
6-31g(d,p)
****
-N 0
6-31+g(d,p)
****
-Na 0
6-31g(d,p)
****
-O 0
6-31+g(d,p)
****


