%chk=lowest10_c1_a2_speciation0_speciationDFT1_speciationDFT38_rank01_E180.23.chk
%nprocshared=20
%mem=40GB
#p opt=loose PM7/gen scf=xqc 

lowest10_c1_a2_speciation0_speciationDFT1_speciationDFT38_rank01_E180.23 DFT input

0 1
Mg      0.780490000000000     -0.339660000000000     -0.533010000000000
C      -0.335730000000000      2.145070000000000      1.314220000000000
C      -1.361640000000000      2.200630000000000     -0.847640000000000
O      -0.324160000000000      1.702000000000000     -0.031470000000000
C      -1.681900000000000      2.029570000000000      2.032910000000000
C      -1.229010000000000      3.693240000000000     -1.106210000000000
H       0.361500000000000      1.478080000000000      1.858120000000000
H       0.082720000000000      3.168430000000000      1.396340000000000
H      -1.273420000000000      1.686090000000000     -1.823550000000000
H      -2.365420000000000      1.918820000000000     -0.473220000000000
H      -1.992800000000000      4.001070000000000     -1.849890000000000
H      -0.219310000000000      3.922200000000000     -1.505590000000000
H      -1.390500000000000      4.259060000000000     -0.168070000000000
H      -2.093120000000000      1.011910000000000      1.930420000000000
H      -2.406660000000000      2.766940000000000      1.633250000000000
H      -1.540470000000000      2.228860000000000      3.113920000000000
H       2.620220000000000      1.024190000000000     -1.898300000000000
C       1.801580000000000     -0.339200000000000     -3.409160000000000
C       2.298200000000000     -0.032920000000000     -1.985770000000000
C       0.552950000000000      0.446630000000000     -3.856630000000000
H       2.630570000000000     -0.136630000000000     -4.118610000000000
H       1.546200000000000     -1.419070000000000     -3.465000000000000
H       0.300830000000000      0.138690000000000     -4.896620000000000
H      -0.309780000000000      0.177080000000000     -3.214810000000000
C       0.745280000000000      1.963090000000000     -3.852310000000000
H       3.144010000000000     -0.697550000000000     -1.725440000000000
H       0.951810000000000      2.325490000000000     -2.827100000000000
H       1.583330000000000      2.252700000000000     -4.519350000000000
H      -0.182940000000000      2.459100000000000     -4.212250000000000
C      -3.109890000000000     -0.827310000000000     -0.888280000000000
C      -2.197940000000000     -1.521850000000000     -1.649550000000000
C      -1.206740000000000     -1.974480000000000     -0.796500000000000
C      -1.491050000000000     -1.546370000000000      0.438350000000000
N      -2.707360000000000     -0.834910000000000      0.454160000000000
C      -0.628660000000000     -1.738580000000000      1.657810000000000
N       0.677630000000000     -1.110860000000000      1.420540000000000
C       1.757720000000000     -1.297800000000000      2.419410000000000
H      -2.247380000000000     -1.658900000000000     -2.721430000000000
H      -3.996460000000000     -0.331280000000000     -1.256900000000000
H      -0.323340000000000     -2.529540000000000     -1.089210000000000
H      -0.527850000000000     -2.821500000000000      1.857210000000000
H      -1.126130000000000     -1.243780000000000      2.518350000000000
C       2.210180000000000     -2.770530000000000      2.462710000000000
C       2.957610000000000     -0.423680000000000      2.018920000000000
C       1.287390000000000     -0.864660000000000      3.828820000000000
H       2.580970000000000     -3.091970000000000      1.467200000000000
H       3.025440000000000     -2.906220000000000      3.206990000000000
H       1.382220000000000     -3.441730000000000      2.767880000000000
H       2.679740000000000      0.651390000000000      2.014000000000000
H       3.798830000000000     -0.559030000000000      2.735790000000000
H       3.316630000000000     -0.698980000000000      1.005230000000000
H       0.956890000000000      0.195860000000000      3.826630000000000
H       0.446020000000000     -1.492780000000000      4.186060000000000
H       2.110820000000000     -0.966040000000000      4.569610000000000
Na      0.062120000000000     -4.816800000000000      8.740780000000001
C      -2.470220000000000     -3.929110000000000      6.857070000000000
C      -2.308660000000000     -6.224730000000000      6.953170000000000
O      -1.598130000000000     -5.029270000000000      6.711460000000000
C      -1.703180000000000     -2.644070000000000      6.581180000000000
C      -1.359710000000000     -7.406180000000000      6.810460000000000
H      -3.305840000000000     -3.987800000000000      6.124570000000000
H      -2.866140000000000     -3.873320000000000      7.896630000000000
H      -2.715680000000000     -6.240650000000000      7.990070000000000
H      -3.128060000000000     -6.354280000000000      6.209680000000000
H      -0.529840000000000     -7.320750000000000      7.543980000000000
H      -1.908400000000000     -8.353320000000000      6.998820000000000
H      -0.936160000000000     -7.434550000000000      5.784040000000000
H      -1.300190000000000     -2.656350000000000      5.546730000000000
H      -2.380830000000000     -1.771080000000000      6.692040000000000
H      -0.862040000000000     -2.538960000000000      7.299040000000000
Na     -1.115760000000000     -5.113000000000000      4.120180000000000
Mg     -6.890050000000000     -7.250650000000000      1.572950000000000
H      -8.963660000000001     -8.309880000000000     -0.454010000000000
C     -10.035159999999999     -6.590450000000000      0.368560000000000
C      -9.135120000000001     -7.803060000000000      0.517920000000000
C     -11.407500000000001     -7.029200000000000     -0.134280000000000
H     -10.131640000000001     -6.086280000000000      1.354800000000000
H      -9.568110000000001     -5.880470000000000     -0.348760000000000
H     -11.293030000000000     -7.540730000000000     -1.114840000000000
H     -11.854749999999999     -7.741370000000000      0.593330000000000
C     -12.340610000000000     -5.838970000000000     -0.301420000000000
H      -9.530390000000001     -8.512510000000001      1.274790000000000
H     -12.484170000000001     -5.323470000000000      0.671930000000000
H     -11.920820000000001     -5.123010000000000     -1.039590000000000
H     -13.324850000000000     -6.197930000000000     -0.667480000000000
C      -4.594610000000000     -9.319080000000000      0.868370000000000
C      -3.222070000000000     -9.275510000000001      1.056280000000000
C      -2.937890000000000     -8.056830000000000      1.653820000000000
C      -4.141140000000000     -7.403390000000000      1.791520000000000
N      -5.132990000000000     -8.180400000000001      1.323270000000000
C      -4.393230000000000     -6.028430000000000      2.379960000000000
N      -5.804790000000000     -5.641160000000000      2.173420000000000
C      -6.316980000000000     -4.337800000000000      2.630470000000000
H      -2.510030000000000    -10.044219999999999      0.792090000000000
H      -5.156570000000000    -10.135990000000000      0.430210000000000
H      -1.964110000000000     -7.685320000000000      1.946000000000000
H      -3.733160000000000     -5.303430000000000      1.866040000000000
H      -4.148180000000000     -6.071900000000000      3.461410000000000
C      -5.622220000000000     -3.203950000000000      1.851820000000000
C      -7.828330000000000     -4.272320000000000      2.344060000000000
C      -6.091420000000000     -4.164200000000000      4.142360000000000
H      -5.795170000000000     -3.327160000000000      0.760010000000000
H      -6.019010000000000     -2.213540000000000      2.160690000000000
H      -4.528450000000000     -3.199940000000000      2.034020000000000
H      -8.368670000000000     -5.071400000000000      2.895340000000000
H      -8.245480000000001     -3.290500000000000      2.661300000000000
H      -8.029600000000000     -4.397140000000000      1.258470000000000
H      -6.588840000000000     -4.984530000000000      4.703410000000000
H      -5.010030000000000     -4.171390000000000      4.384140000000000
H      -6.507290000000000     -3.194050000000000      4.489690000000000

-C 0
6-31g(d,p)
****
-H 0
6-31g(d,p)
****
-Mg 0
6-31g(d,p)
****
-N 0
6-31+g(d,p)
****
-Na 0
6-31g(d,p)
****
-O 0
6-31+g(d,p)
****


