%chk=lowest10_c1_a2_speciation7_speciationDFT37b_speciationDFT38_rank08_E204.11.chk
%nprocshared=20
%mem=40GB
#p opt=loose PM7/gen scf=xqc 

lowest10_c1_a2_speciation7_speciationDFT37b_speciationDFT38_rank08_E204.11 DFT input

0 1
Mg      0.891580000000000     -0.419860000000000     -0.019010000000000
C      -1.569070000000000      0.716980000000000      1.858950000000000
C      -0.420330000000000      2.538730000000000      0.814520000000000
O      -0.418630000000000      1.172390000000000      1.168330000000000
C      -2.909080000000000      1.100940000000000      1.226910000000000
C      -0.327210000000000      3.452370000000000      2.026770000000000
H      -1.521330000000000     -0.389310000000000      1.830220000000000
H      -1.526670000000000      1.003520000000000      2.929240000000000
H       0.484820000000000      2.709640000000000      0.200840000000000
H      -1.264100000000000      2.800330000000000      0.145970000000000
H      -0.206420000000000      4.500160000000000      1.681880000000000
H       0.547520000000000      3.171280000000000      2.649020000000000
H      -1.250260000000000      3.377190000000000      2.634020000000000
H      -2.931910000000000      0.821080000000000      0.160550000000000
H      -3.097580000000000      2.188310000000000      1.331370000000000
H      -3.727160000000000      0.554450000000000      1.737200000000000
H       2.876450000000000     -0.051850000000000      1.725350000000000
C       3.800970000000000      0.478400000000000     -0.191790000000000
C       2.898460000000000     -0.413580000000000      0.677710000000000
C       3.340750000000000      1.942840000000000     -0.335040000000000
H       4.825230000000000      0.460410000000000      0.235040000000000
H       3.838100000000000      0.045510000000000     -1.214430000000000
H       4.074330000000000      2.477420000000000     -0.980020000000000
H       2.360050000000000      1.979400000000000     -0.850710000000000
C       3.252810000000000      2.694090000000000      0.993270000000000
H       3.262660000000000     -1.458700000000000      0.658020000000000
H       2.496760000000000      2.228130000000000      1.653940000000000
H       4.236600000000000      2.697170000000000      1.506430000000000
H       2.945830000000000      3.746940000000000      0.807680000000000
C      -0.994460000000000      1.906240000000000     -2.579010000000000
C       0.231420000000000      1.344420000000000     -2.844620000000000
C       0.172950000000000      0.013440000000000     -2.467720000000000
C      -1.046870000000000     -0.217810000000000     -1.962970000000000
N      -1.847560000000000      0.933330000000000     -2.031110000000000
C      -1.507500000000000     -1.518270000000000     -1.353410000000000
N      -0.648660000000000     -1.839230000000000     -0.208610000000000
C      -0.809860000000000     -3.150640000000000      0.466830000000000
H       1.088010000000000      1.866620000000000     -3.252860000000000
H      -1.270520000000000      2.936690000000000     -2.743840000000000
H       0.985140000000000     -0.697500000000000     -2.519520000000000
H      -1.468230000000000     -2.308130000000000     -2.126060000000000
H      -2.554720000000000     -1.385820000000000     -1.006330000000000
C      -0.393100000000000     -4.300900000000000     -0.470760000000000
C       0.089260000000000     -3.178420000000000      1.713310000000000
C      -2.275290000000000     -3.362180000000000      0.917420000000000
H       0.665540000000000     -4.184020000000000     -0.782860000000000
H      -0.506450000000000     -5.281720000000000      0.041700000000000
H      -1.029390000000000     -4.337850000000000     -1.377850000000000
H      -0.205680000000000     -2.386670000000000      2.434100000000000
H       0.009520000000000     -4.161430000000000      2.228950000000000
H       1.150810000000000     -3.019610000000000      1.430340000000000
H      -2.600830000000000     -2.546730000000000      1.597820000000000
H      -2.967310000000000     -3.392770000000000      0.050240000000000
H      -2.386330000000000     -4.326620000000000      1.460560000000000
Na     -1.433790000000000     -2.390410000000000      9.204680000000000
C       0.025930000000000     -1.197420000000000      6.621220000000000
C      -0.473600000000000     -3.422820000000000      6.075050000000000
O      -0.108130000000000     -2.520770000000000      7.101900000000000
C      -1.303180000000000     -0.453930000000000      6.703820000000000
C       0.759490000000000     -4.016630000000000      5.399450000000000
H       0.759620000000000     -0.673320000000000      7.269740000000000
H       0.440270000000000     -1.154160000000000      5.588710000000000
H      -1.050410000000000     -4.249430000000000      6.542130000000000
H      -1.148000000000000     -2.962970000000000      5.318620000000000
H       1.391100000000000     -4.548490000000000      6.140680000000000
H       0.439620000000000     -4.744480000000000      4.625640000000000
H       1.361540000000000     -3.221320000000000      4.913560000000000
H      -1.670120000000000     -0.440930000000000      7.751540000000000
H      -1.164660000000000      0.592000000000000      6.359880000000000
H      -2.063820000000000     -0.940990000000000      6.060340000000000
C      -4.281850000000000     -3.049750000000000      7.527740000000000
C      -4.624300000000000     -3.104090000000000      9.886820000000000
O      -3.695640000000000     -3.053570000000000      8.817539999999999
C      -5.151750000000000     -1.823490000000000      7.248540000000000
C      -5.453960000000000     -4.387600000000000      9.915920000000000
H      -3.442440000000000     -3.017440000000000      6.801780000000000
H      -4.819570000000000     -3.996560000000000      7.316350000000000
H      -4.026710000000000     -3.087240000000000     10.823650000000001
H      -5.261450000000000     -2.196580000000000      9.926720000000000
H      -4.784910000000000     -5.273510000000000      9.897819999999999
H      -6.059490000000000     -4.411020000000000     10.846050000000000
H      -6.153770000000000     -4.428780000000000      9.056970000000000
H      -4.575330000000000     -0.893980000000000      7.439660000000000
H      -5.470240000000000     -1.837310000000000      6.184970000000000
H      -6.067490000000000     -1.832500000000000      7.873370000000000
Na      1.776920000000000     -3.510730000000000      8.208690000000001
C       0.672650000000000     -2.933210000000000     11.301240000000000
C       0.053500000000000     -5.049660000000000     10.517569999999999
O       0.361140000000000     -3.715730000000000     10.167100000000000
C       1.338710000000000     -1.644530000000000     10.835810000000000
C      -1.375180000000000     -5.186100000000000     11.039429999999999
H      -0.257000000000000     -2.661830000000000     11.846030000000001
H       1.386530000000000     -3.447180000000000     11.983490000000000
H       0.135330000000000     -5.659050000000000      9.592040000000001
H       0.789910000000000     -5.478720000000000     11.232600000000000
H      -2.094720000000000     -4.806870000000000     10.285050000000000
H      -1.595510000000000     -6.255980000000000     11.237220000000001
H      -1.504740000000000     -4.622430000000000     11.984650000000000
H       0.665720000000000     -1.090890000000000     10.146509999999999
H       1.566670000000000     -0.999420000000000     11.710170000000000
H       2.286130000000000     -1.873920000000000     10.304790000000001
C       4.851980000000000     -3.974010000000000      9.360910000000001
C       4.829090000000000     -2.124410000000000      7.968740000000000
O       4.043350000000000     -3.093890000000000      8.618370000000001
C       3.948840000000000     -5.012820000000000     10.012230000000001
C       3.896440000000000     -1.190030000000000      7.209760000000000
H       5.570870000000000     -4.508650000000000      8.699750000000000
H       5.388550000000000     -3.427900000000000     10.168889999999999
H       5.399580000000000     -1.516770000000000      8.706840000000000
H       5.516210000000000     -2.600320000000000      7.233280000000000
H       3.196300000000000     -0.698400000000000      7.918680000000000
H       4.482670000000000     -0.408970000000000      6.682640000000000
H       3.306070000000000     -1.764340000000000      6.463160000000000
H       3.394220000000000     -5.579080000000000      9.233060000000000
H       4.552570000000000     -5.722830000000000     10.614430000000000
H       3.216240000000000     -4.511070000000000     10.677809999999999
Mg     -2.130600000000000     -2.495670000000000     18.080850000000002
C      -3.459080000000000     -4.551520000000000     15.980610000000000
C      -3.610940000000000     -2.302730000000000     15.208340000000000
O      -3.711100000000000     -3.195160000000000     16.300160000000002
C      -2.056920000000000     -4.815810000000000     15.430210000000001
C      -4.769280000000000     -2.455950000000000     14.231990000000000
H      -3.531520000000000     -5.109280000000000     16.934840000000001
H      -4.250080000000000     -4.976980000000000     15.331360000000000
H      -3.663930000000000     -1.276530000000000     15.632339999999999
H      -2.627010000000000     -2.352350000000000     14.699650000000000
H      -5.731730000000000     -2.373730000000000     14.779700000000000
H      -4.714540000000000     -1.652930000000000     13.468109999999999
H      -4.715780000000000     -3.434620000000000     13.714390000000000
H      -1.292880000000000     -4.338750000000000     16.074190000000002
H      -1.874030000000000     -5.910290000000000     15.403210000000000
H      -1.957780000000000     -4.430020000000000     14.397660000000000
H       0.406300000000000     -2.120280000000000     17.468039999999998
C      -0.485620000000000     -0.137200000000000     17.565560000000001
C      -0.503880000000000     -1.587540000000000     17.124289999999998
C      -0.503380000000000     -0.045380000000000     19.095040000000001
H       0.427730000000000      0.336220000000000     17.150720000000000
H      -1.384460000000000      0.381450000000000     17.164040000000000
H      -1.465960000000000     -0.445470000000000     19.480180000000001
H       0.323820000000000     -0.647840000000000     19.527180000000001
C      -0.338430000000000      1.397700000000000     19.553850000000001
H      -0.595540000000000     -1.668740000000000     16.021950000000000
H       0.645220000000000      1.784980000000000     19.212000000000000
H      -1.148070000000000      2.035930000000000     19.141120000000001
H      -0.372040000000000      1.443390000000000     20.662590000000002
C      -3.879620000000000     -0.583500000000000     21.009049999999998
C      -4.336190000000000     -0.556510000000000     19.710899999999999
C      -4.410230000000000     -1.866450000000000     19.272050000000000
C      -3.998010000000000     -2.663550000000000     20.262979999999999
N      -3.667410000000000     -1.912290000000000     21.408740000000002
C      -3.897980000000000     -4.165220000000000     20.209859999999999
N      -2.823680000000000     -4.605670000000000     19.301670000000001
C      -1.540550000000000     -5.028070000000000     19.917560000000002
H      -4.578510000000000      0.333970000000000     19.145029999999998
H      -3.702060000000000      0.280090000000000     21.633749999999999
H      -4.738800000000000     -2.182530000000000     18.294329999999999
H      -4.865980000000000     -4.571920000000000     19.847429999999999
H      -3.749850000000000     -4.544730000000000     21.234279999999998
C      -1.736580000000000     -6.290650000000000     20.782460000000000
C      -0.565380000000000     -5.386520000000000     18.779579999999999
C      -0.903100000000000     -3.895710000000000     20.750309999999999
H      -2.213660000000000     -7.094080000000000     20.181500000000000
H      -0.757120000000000     -6.661930000000000     21.153510000000001
H      -2.361200000000000     -6.099820000000000     21.675560000000001
H      -0.355080000000000     -4.499100000000000     18.149170000000002
H       0.406880000000000     -5.745070000000000     19.184920000000002
H      -0.988760000000000     -6.186080000000000     18.134049999999998
H      -0.696520000000000     -3.008470000000000     20.114760000000000
H      -1.560310000000000     -3.586820000000000     21.585899999999999
H       0.061200000000000     -4.233110000000000     21.189370000000000

-C 0
6-31g(d,p)
****
-H 0
6-31g(d,p)
****
-Mg 0
6-31g(d,p)
****
-N 0
6-31+g(d,p)
****
-Na 0
6-31g(d,p)
****
-O 0
6-31+g(d,p)
****


