%chk=lowest10_c1_a2_speciation7_speciationDFT0_speciationDFT38_rank07_E220.30.chk
%nprocshared=20
%mem=40GB
#p opt=loose PM7/gen scf=xqc 

lowest10_c1_a2_speciation7_speciationDFT0_speciationDFT38_rank07_E220.30 DFT input

0 1
Mg      0.757260000000000     -0.383190000000000      0.463320000000000
C      -2.373000000000000     -0.923980000000000     -0.454650000000000
C      -2.288290000000000      0.815990000000000      1.185440000000000
O      -1.625220000000000     -0.253220000000000      0.544860000000000
C      -3.037970000000000     -0.017930000000000     -1.493600000000000
C      -3.447080000000000      0.347250000000000      2.052410000000000
H      -1.645870000000000     -1.547850000000000     -1.010880000000000
H      -3.101440000000000     -1.625320000000000      0.000400000000000
H      -1.547630000000000      1.295330000000000      1.853880000000000
H      -2.582630000000000      1.614850000000000      0.476640000000000
H      -3.846310000000000      1.212550000000000      2.621070000000000
H      -3.099390000000000     -0.427470000000000      2.766700000000000
H      -4.254830000000000     -0.070440000000000      1.420120000000000
H      -2.302310000000000      0.680960000000000     -1.928790000000000
H      -3.873920000000000      0.552730000000000     -1.041440000000000
H      -3.447560000000000     -0.639270000000000     -2.315170000000000
H       0.743220000000000     -1.844430000000000      2.699950000000000
C       1.966470000000000     -0.108640000000000      3.246010000000000
C       1.539020000000000     -1.209630000000000      2.261040000000000
C       0.867760000000000      0.908200000000000      3.614600000000000
H       2.339280000000000     -0.592420000000000      4.172720000000000
H       2.801330000000000      0.463500000000000      2.787490000000000
H       1.301000000000000      1.645240000000000      4.327860000000000
H       0.554950000000000      1.467890000000000      2.710030000000000
C      -0.356820000000000      0.280190000000000      4.279820000000000
H       2.408180000000000     -1.843120000000000      1.997770000000000
H      -0.856490000000000     -0.425100000000000      3.588190000000000
H      -0.066050000000000     -0.257220000000000      5.206040000000000
H      -1.086380000000000      1.076530000000000      4.545940000000000
C      -0.404000000000000      3.225140000000000     -0.509980000000000
C       0.794050000000000      2.998160000000000      0.143020000000000
C       1.400100000000000      1.938830000000000     -0.504090000000000
C       0.569130000000000      1.559820000000000     -1.469050000000000
N      -0.561540000000000      2.395910000000000     -1.472130000000000
C       0.761840000000000      0.385570000000000     -2.393700000000000
N       0.849920000000000     -0.839660000000000     -1.588250000000000
C       1.211900000000000     -2.116510000000000     -2.250320000000000
H       1.164240000000000      3.521400000000000      1.015030000000000
H      -1.132730000000000      3.980980000000000     -0.254080000000000
H       2.341360000000000      1.471190000000000     -0.244840000000000
H       1.682280000000000      0.548530000000000     -2.985300000000000
H      -0.113410000000000      0.322330000000000     -3.073890000000000
C       2.665770000000000     -2.074900000000000     -2.760490000000000
C       1.081430000000000     -3.257250000000000     -1.227840000000000
C       0.261800000000000     -2.413410000000000     -3.435040000000000
H       3.367750000000000     -1.890470000000000     -1.920800000000000
H       2.936370000000000     -3.040010000000000     -3.243160000000000
H       2.806600000000000     -1.282750000000000     -3.523300000000000
H       0.036780000000000     -3.344310000000000     -0.861680000000000
H       1.367190000000000     -4.228470000000000     -1.690080000000000
H       1.746060000000000     -3.077440000000000     -0.357060000000000
H      -0.794320000000000     -2.454040000000000     -3.093380000000000
H       0.345200000000000     -1.639920000000000     -4.226640000000000
H       0.508410000000000     -3.392100000000000     -3.902930000000000
Na      8.390190000000000    -12.788600000000001      2.511990000000000
C       8.587289999999999    -11.998350000000000      5.602680000000000
C       6.355670000000000    -11.583909999999999      5.009230000000000
O       7.704060000000000    -11.579530000000000      4.579970000000000
C       8.782460000000000    -13.510680000000001      5.565080000000000
C       5.964360000000000    -10.236560000000001      5.610680000000000
H       9.570890000000000    -11.515380000000000      5.421620000000000
H       8.262910000000000    -11.666490000000000      6.614720000000000
H       5.717680000000000    -11.769259999999999      4.118770000000000
H       6.136030000000000    -12.407480000000000      5.724550000000000
H       6.101170000000000     -9.424170000000000      4.867300000000000
H       4.896220000000000    -10.263610000000000      5.910150000000000
H       6.578740000000000    -10.014570000000001      6.507480000000000
H       9.175800000000001    -13.821830000000000      4.574810000000000
H       9.509050000000000    -13.810470000000000      6.348590000000000
H       7.822530000000000    -14.033170000000000      5.753290000000000
C       6.075790000000000    -15.179740000000001      3.080690000000000
C       7.056150000000000    -15.404100000000000      0.919930000000000
O       6.892870000000000    -14.603050000000000      2.077350000000000
C       6.640190000000000    -16.474530000000001      3.667300000000000
C       5.754070000000000    -15.648130000000000      0.157550000000000
H       6.033650000000000    -14.444630000000000      3.911510000000000
H       5.027350000000000    -15.300870000000000      2.739340000000000
H       7.725910000000000    -14.837870000000001      0.237650000000000
H       7.592330000000000    -16.349989999999998      1.141140000000000
H       5.261550000000000    -14.679580000000000     -0.067960000000000
H       5.979770000000000    -16.169309999999999     -0.796190000000000
H       5.065680000000000    -16.293730000000000      0.739360000000000
H       7.677950000000000    -16.311190000000000      4.026860000000000
H       6.008470000000000    -16.792729999999999      4.523000000000000
H       6.627080000000000    -17.292149999999999      2.918670000000000
Na      8.072509999999999     -9.421630000000000      3.595820000000000
C       9.664370000000000    -10.576040000000001      0.901520000000000
C       7.366500000000000    -10.319760000000000      0.536490000000000
O       8.378800000000000    -10.581880000000000      1.487330000000000
C      10.705800000000000    -10.494630000000001      2.010660000000000
C       7.026100000000000    -11.558490000000001     -0.289450000000000
H       9.833510000000000    -11.520410000000000      0.341130000000000
H       9.819599999999999     -9.696770000000001      0.236650000000000
H       6.454440000000000    -10.028250000000000      1.100370000000000
H       7.613680000000000     -9.452669999999999     -0.115280000000000
H       6.727540000000000    -12.392010000000001      0.379120000000000
H       6.180440000000000    -11.327019999999999     -0.970480000000000
H       7.893610000000000    -11.873500000000000     -0.904580000000000
H      10.594139999999999    -11.353080000000000      2.707170000000000
H      11.726319999999999    -10.517540000000000      1.573820000000000
H      10.583380000000000     -9.550760000000000      2.581770000000000
C       9.297610000000001     -6.388140000000000      3.052140000000000
C      10.112100000000000     -7.188350000000000      5.065800000000000
O       9.377870000000000     -7.502460000000000      3.907530000000000
C       8.468270000000000     -6.781220000000000      1.836980000000000
C      10.186410000000000     -8.437930000000000      5.932820000000000
H       8.788520000000000     -5.535220000000000      3.555240000000000
H      10.310090000000001     -6.091040000000000      2.697660000000000
H      11.151960000000001     -6.886790000000000      4.806510000000000
H       9.603569999999999     -6.390000000000000      5.651960000000000
H      10.690460000000000     -9.255340000000000      5.374060000000000
H      10.760370000000000     -8.227580000000000      6.859050000000000
H       9.162680000000000     -8.771160000000000      6.209730000000000
H       7.447370000000000     -7.086070000000000      2.153550000000000
H       8.388890000000000     -5.926470000000000      1.133880000000000
H       8.948499999999999     -7.633210000000000      1.312670000000000
Mg      2.576070000000000    -10.474200000000000      0.489890000000000
H       3.313890000000000     -7.742250000000000     -0.947750000000000
C       1.409530000000000     -8.170820000000001     -1.940570000000000
C       2.713280000000000     -8.608409999999999     -1.292610000000000
C       0.520090000000000     -7.353380000000000     -0.993820000000000
H       1.659790000000000     -7.550250000000000     -2.826300000000000
H       0.852750000000000     -9.067299999999999     -2.287430000000000
H       1.065030000000000     -6.450480000000000     -0.644290000000000
H      -0.371180000000000     -7.024160000000000     -1.568870000000000
C       0.032740000000000     -8.149580000000000      0.218110000000000
H       3.308490000000000     -9.227100000000000     -1.998200000000000
H       0.881280000000000     -8.433610000000000      0.872710000000000
H      -0.668050000000000     -7.521440000000000      0.809270000000000
H      -0.505810000000000     -9.065540000000000     -0.106370000000000
C       2.593540000000000     -9.328880000000000      3.453850000000000
C       2.145620000000000     -9.863220000000000      4.650780000000000
C       1.607010000000000    -11.107960000000000      4.362080000000000
C       1.730030000000000    -11.270070000000000      2.999610000000000
N       2.338230000000000    -10.202230000000000      2.466200000000000
C       1.282550000000000    -12.451770000000000      2.159640000000000
N       1.375530000000000    -12.103380000000000      0.725860000000000
C       0.957370000000000    -13.056800000000001     -0.316870000000000
H       2.206890000000000     -9.400620000000000      5.626570000000000
H       3.074780000000000     -8.369170000000000      3.318460000000000
H       1.165080000000000    -11.805080000000000      5.060600000000000
H       1.934790000000000    -13.314900000000000      2.406730000000000
H       0.230570000000000    -12.681290000000001      2.413510000000000
C      -0.557840000000000    -13.317750000000000     -0.206070000000000
C       1.242800000000000    -12.430780000000000     -1.693580000000000
C       1.735410000000000    -14.378750000000000     -0.197890000000000
H      -1.119150000000000    -12.361620000000000     -0.296600000000000
H      -0.900070000000000    -14.002829999999999     -1.010830000000000
H      -0.818830000000000    -13.785320000000000      0.764760000000000
H       2.328290000000000    -12.229400000000000     -1.818180000000000
H       0.919080000000000    -13.114319999999999     -2.509900000000000
H       0.694030000000000    -11.472110000000001     -1.808950000000000
H       2.826550000000000    -14.191430000000000     -0.279440000000000
H       1.529800000000000    -14.877060000000000      0.771710000000000
H       1.434610000000000    -15.080200000000000     -1.005950000000000

-C 0
6-31g(d,p)
****
-H 0
6-31g(d,p)
****
-Mg 0
6-31g(d,p)
****
-N 0
6-31+g(d,p)
****
-Na 0
6-31g(d,p)
****
-O 0
6-31+g(d,p)
****


