%chk=lowest10_c1_a2_speciation7_speciationDFT0_speciationDFT38_rank05_E220.21.chk
%nprocshared=20
%mem=40GB
#p opt=loose PM7/gen scf=xqc 

lowest10_c1_a2_speciation7_speciationDFT0_speciationDFT38_rank05_E220.21 DFT input

0 1
Mg      0.495700000000000      0.162810000000000      0.784840000000000
C       0.606790000000000      0.511750000000000     -2.501320000000000
C       0.938480000000000     -1.782380000000000     -1.908390000000000
O       0.906080000000000     -0.434450000000000     -1.489770000000000
C      -0.625820000000000      0.194080000000000     -3.351170000000000
C       2.105750000000000     -2.075530000000000     -2.838810000000000
H       0.380780000000000      1.459350000000000     -1.973810000000000
H       1.496620000000000      0.710890000000000     -3.132280000000000
H       1.079180000000000     -2.395420000000000     -0.997580000000000
H      -0.032020000000000     -2.118300000000000     -2.323730000000000
H       2.148500000000000     -3.167420000000000     -3.032310000000000
H       3.057730000000000     -1.752390000000000     -2.369140000000000
H       1.971330000000000     -1.545140000000000     -3.801810000000000
H      -1.499480000000000     -0.012280000000000     -2.708340000000000
H      -0.434930000000000     -0.674480000000000     -4.013020000000000
H      -0.868390000000000      1.068100000000000     -3.988430000000000
H       3.127210000000000      0.171750000000000      1.245850000000000
C       2.377470000000000     -1.321690000000000      2.665400000000000
C       2.276000000000000      0.031660000000000      1.942100000000000
C       2.295600000000000     -2.562900000000000      1.754750000000000
H       3.333120000000000     -1.347310000000000      3.229250000000000
H       1.538910000000000     -1.392350000000000      3.390910000000000
H       2.381090000000000     -3.469210000000000      2.394880000000000
H       1.304740000000000     -2.600750000000000      1.258730000000000
C       3.401180000000000     -2.630040000000000      0.701380000000000
H       2.267410000000000      0.857610000000000      2.679540000000000
H       3.326970000000000     -1.773190000000000      0.004330000000000
H       4.400860000000000     -2.626310000000000      1.182940000000000
H       3.296150000000000     -3.565780000000000      0.109320000000000
C      -2.116700000000000     -2.512400000000000     -0.370810000000000
C      -1.671360000000000     -2.448930000000000      0.937220000000000
C      -1.704540000000000     -1.116220000000000      1.299560000000000
C      -2.125500000000000     -0.444620000000000      0.233130000000000
N      -2.400040000000000     -1.344700000000000     -0.811830000000000
C      -2.246130000000000      1.053430000000000      0.119940000000000
N      -0.921760000000000      1.651020000000000      0.335590000000000
C      -0.801660000000000      3.125240000000000      0.445500000000000
H      -1.326030000000000     -3.276380000000000      1.543430000000000
H      -2.207410000000000     -3.408950000000000     -0.967290000000000
H      -1.396990000000000     -0.692200000000000      2.246910000000000
H      -2.977230000000000      1.407380000000000      0.870910000000000
H      -2.606600000000000      1.304360000000000     -0.899790000000000
C      -1.492060000000000      3.635940000000000      1.725460000000000
C       0.689600000000000      3.495050000000000      0.508650000000000
C      -1.425590000000000      3.823880000000000     -0.786230000000000
H      -1.040480000000000      3.167510000000000      2.624620000000000
H      -1.386650000000000      4.740140000000000      1.810230000000000
H      -2.578710000000000      3.415970000000000      1.716770000000000
H       1.216400000000000      3.173550000000000     -0.414390000000000
H       0.816910000000000      4.596360000000000      0.611980000000000
H       1.174620000000000      3.006070000000000      1.379280000000000
H      -0.941750000000000      3.477100000000000     -1.724000000000000
H      -2.514940000000000      3.623930000000000     -0.858560000000000
H      -1.296540000000000      4.926930000000000     -0.721740000000000
Na     -0.619310000000000     -8.427040000000000      2.576920000000000
C       1.355390000000000    -10.715870000000001      1.539210000000000
C      -0.027140000000000    -11.772150000000000      3.113050000000000
O       0.632550000000000    -10.574920000000001      2.747130000000000
C       0.478810000000000    -10.371820000000000      0.339250000000000
C       0.863850000000000    -12.645849999999999      3.992260000000000
H       2.205440000000000    -10.001580000000001      1.566080000000000
H       1.806420000000000    -11.727069999999999      1.422510000000000
H      -0.931860000000000    -11.495559999999999      3.695540000000000
H      -0.389590000000000    -12.348340000000000      2.232810000000000
H       1.155130000000000    -12.101030000000000      4.914020000000000
H       0.308370000000000    -13.560860000000000      4.284740000000000
H       1.780350000000000    -12.947160000000000      3.444310000000000
H       0.093770000000000     -9.334740000000000      0.430690000000000
H       1.077480000000000    -10.450080000000000     -0.591960000000000
H      -0.379010000000000    -11.071170000000000      0.268940000000000
C      -3.372560000000000    -10.057710000000000      1.501640000000000
C      -3.841040000000000     -7.772170000000000      1.989030000000000
O      -2.921670000000000     -8.846480000000000      2.081810000000000
C      -3.606880000000000     -9.969420000000000     -0.007130000000000
C      -5.143470000000000     -8.015700000000001      2.751040000000000
H      -2.561710000000000    -10.800129999999999      1.655850000000000
H      -4.254290000000000    -10.467499999999999      2.035560000000000
H      -3.350060000000000     -6.896160000000000      2.464760000000000
H      -4.024520000000000     -7.471590000000000      0.936840000000000
H      -4.919880000000000     -8.287660000000001      3.803470000000000
H      -5.753990000000000     -7.088720000000000      2.739370000000000
H      -5.741100000000000     -8.818530000000001      2.274040000000000
H      -2.696520000000000     -9.585520000000001     -0.513840000000000
H      -3.837880000000000    -10.981780000000001     -0.399960000000000
H      -4.470310000000000     -9.314270000000000     -0.240350000000000
Na      1.838060000000000     -9.866940000000000      4.698090000000000
C       0.916880000000000     -6.667180000000000      4.489120000000000
C      -0.510880000000000     -7.918240000000000      5.859110000000000
O       0.362810000000000     -7.940720000000000      4.748400000000000
C       2.101100000000000     -6.833770000000000      3.545120000000000
C      -1.886000000000000     -7.365310000000000      5.490810000000000
H       0.167040000000000     -6.018470000000000      3.987580000000000
H       1.297140000000000     -6.177870000000000      5.413890000000000
H      -0.647160000000000     -8.970100000000000      6.190690000000000
H      -0.075280000000000     -7.377390000000000      6.728280000000000
H      -2.324510000000000     -7.956610000000000      4.660770000000000
H      -2.558910000000000     -7.432960000000000      6.371240000000000
H      -1.814880000000000     -6.301140000000000      5.186400000000000
H       1.775160000000000     -7.320450000000000      2.601010000000000
H       2.536760000000000     -5.841560000000000      3.305380000000000
H       2.883950000000000     -7.460670000000000      4.020670000000000
C       4.338840000000000     -9.042920000000001      6.714410000000000
C       5.200080000000000     -9.924160000000001      4.754780000000000
O       4.035620000000000     -9.493060000000000      5.416230000000000
C       3.039000000000000     -8.621070000000000      7.386250000000000
C       4.810330000000000    -10.369960000000001      3.351920000000000
H       4.792470000000000     -9.857550000000000      7.323020000000000
H       5.011130000000000     -8.156590000000000      6.676070000000000
H       5.933600000000000     -9.091989999999999      4.660330000000000
H       5.654590000000000    -10.793880000000000      5.280670000000000
H       4.352490000000000     -9.521319999999999      2.799980000000000
H       5.706740000000000    -10.718159999999999      2.798050000000000
H       4.073950000000000    -11.200920000000000      3.406860000000000
H       2.340030000000000     -9.483499999999999      7.441410000000000
H       3.240110000000000     -8.252160000000000      8.413240000000000
H       2.558730000000000     -7.809430000000000      6.801450000000000
Mg     -3.625550000000000    -10.976350000000000      7.841260000000000
H      -2.013070000000000     -9.760000000000000     10.289220000000000
C      -3.912250000000000    -10.198589999999999     11.288140000000000
C      -3.100300000000000     -9.783230000000000     10.071830000000000
C      -3.527200000000000    -11.588089999999999     11.814370000000000
H      -3.737490000000000     -9.448800000000000     12.087790000000000
H      -4.992460000000000    -10.188680000000000     11.029470000000000
H      -2.449160000000000    -11.607570000000001     12.085380000000001
H      -4.121750000000000    -11.776999999999999     12.733140000000001
C      -3.822480000000000    -12.714610000000000     10.821949999999999
H      -3.435550000000000     -8.790130000000000      9.702740000000000
H      -3.192530000000000    -12.619080000000000      9.914650000000000
H      -3.597140000000000    -13.691720000000000     11.301130000000001
H      -4.894290000000000    -12.706830000000000     10.529430000000000
C      -1.587320000000000    -13.331189999999999      7.210860000000000
C      -1.696080000000000    -14.453070000000000      6.405680000000000
C      -2.966230000000000    -14.430800000000000      5.849730000000000
C      -3.584580000000000    -13.308750000000000      6.356070000000000
N      -2.741810000000000    -12.647100000000000      7.160230000000000
C      -4.995510000000000    -12.821700000000000      6.083600000000000
N      -5.331950000000000    -11.729550000000000      7.021570000000000
C      -6.664060000000000    -11.099890000000000      7.008930000000000
H      -0.934800000000000    -15.202950000000000      6.238230000000000
H      -0.721810000000000    -13.037020000000000      7.789930000000000
H      -3.392780000000000    -15.154620000000000      5.169040000000000
H      -5.041480000000000    -12.475440000000001      5.030300000000000
H      -5.692140000000000    -13.666689999999999      6.240050000000000
C      -7.732580000000000    -12.134520000000000      7.413950000000000
C      -6.675200000000000     -9.960210000000000      8.043200000000001
C      -6.984890000000000    -10.518509999999999      5.621090000000000
H      -7.501570000000000    -12.550710000000000      8.419380000000000
H      -8.739920000000000    -11.667610000000000      7.450720000000000
H      -7.779010000000000    -12.973730000000000      6.690890000000000
H      -5.919910000000000     -9.186890000000000      7.786530000000000
H      -7.674980000000000     -9.472790000000000      8.078889999999999
H      -6.445520000000000    -10.349970000000001      9.057499999999999
H      -6.216560000000000     -9.772050000000000      5.329900000000000
H      -7.017210000000000    -11.316979999999999      4.851600000000000
H      -7.978390000000000    -10.020160000000001      5.629290000000000

-C 0
6-31g(d,p)
****
-H 0
6-31g(d,p)
****
-Mg 0
6-31g(d,p)
****
-N 0
6-31+g(d,p)
****
-Na 0
6-31g(d,p)
****
-O 0
6-31+g(d,p)
****


