%chk=lowest10_c1_a2_speciation0_speciationDFT36_speciationDFT96_rank06_E186.87.chk
%nprocshared=20
%mem=40GB
#p opt=loose PM7/gen scf=xqc 

lowest10_c1_a2_speciation0_speciationDFT36_speciationDFT96_rank06_E186.87 DFT input

0 1
Mg     -0.163130000000000     -0.203350000000000     -0.381670000000000
C       3.270650000000000     -0.140800000000000     -1.011410000000000
C       2.308930000000000      2.017200000000000     -0.670990000000000
O       2.176520000000000      0.615710000000000     -0.527540000000000
C       4.560290000000000      0.078680000000000     -0.227360000000000
C       2.376790000000000      2.479990000000000     -2.123930000000000
H       2.988330000000000     -1.208870000000000     -0.888720000000000
H       3.434150000000000      0.002990000000000     -2.096310000000000
H       1.387860000000000      2.463230000000000     -0.246150000000000
H       3.137830000000000      2.422410000000000     -0.056110000000000
H       1.529560000000000      2.055600000000000     -2.701370000000000
H       2.312000000000000      3.587580000000000     -2.155390000000000
H       3.335890000000000      2.178780000000000     -2.588910000000000
H       4.391360000000000     -0.086280000000000      0.855720000000000
H       5.325150000000000     -0.642760000000000     -0.584020000000000
H       4.947640000000000      1.103140000000000     -0.392990000000000
H       0.718940000000000     -2.406170000000000     -2.149780000000000
C       0.632430000000000     -0.792930000000000     -3.637640000000000
C       0.090830000000000     -1.537910000000000     -2.437300000000000
C       0.621420000000000     -1.711430000000000     -4.846850000000000
H       0.005540000000000      0.101200000000000     -3.833620000000000
H       1.665060000000000     -0.455480000000000     -3.423710000000000
H       1.249700000000000     -2.603330000000000     -4.632330000000000
H      -0.422330000000000     -2.040080000000000     -5.043510000000000
C       1.164780000000000     -0.995230000000000     -6.072620000000000
H      -0.976510000000000     -1.814760000000000     -2.561590000000000
H       0.540340000000000     -0.106090000000000     -6.304620000000000
H       2.212370000000000     -0.671280000000000     -5.893510000000000
H       1.142170000000000     -1.690110000000000     -6.936160000000000
C      -1.885010000000000     -0.891320000000000      4.110880000000000
C      -3.126480000000000     -0.470050000000000      3.688510000000000
C      -2.914270000000000      0.544580000000000      2.767890000000000
C      -1.596050000000000      0.684500000000000      2.653690000000000
N      -0.965890000000000     -0.220250000000000      3.521860000000000
C      -0.812690000000000      1.675260000000000      1.814140000000000
N      -0.895440000000000      1.510710000000000      0.350710000000000
C      -2.012700000000000      1.971760000000000     -0.485480000000000
H      -4.079210000000000     -0.854880000000000      4.030230000000000
H      -1.676740000000000     -1.668150000000000      4.832000000000000
H      -3.684560000000000      1.105410000000000      2.269230000000000
H       0.257210000000000      1.516140000000000      2.069830000000000
H      -1.047590000000000      2.711310000000000      2.113660000000000
C      -2.689170000000000      3.201000000000000      0.124980000000000
C      -1.426650000000000      2.366430000000000     -1.856010000000000
C      -3.014630000000000      0.823940000000000     -0.727970000000000
H      -1.930440000000000      3.999960000000000      0.275580000000000
H      -3.484390000000000      3.580730000000000     -0.546720000000000
H      -3.143940000000000      2.954150000000000      1.101490000000000
H      -0.911800000000000      1.502230000000000     -2.321690000000000
H      -2.224770000000000      2.702600000000000     -2.552680000000000
H      -0.681440000000000      3.183190000000000     -1.750510000000000
H      -2.531360000000000     -0.020860000000000     -1.267760000000000
H      -3.421540000000000      0.415820000000000      0.207380000000000
H      -3.865650000000000      1.178910000000000     -1.347600000000000
C      -0.038910000000000     -2.674580000000000      1.580540000000000
C       1.747040000000000     -1.227770000000000      2.113000000000000
O       0.853820000000000     -1.681370000000000      1.115800000000000
C      -1.411340000000000     -2.490070000000000      0.928840000000000
C       2.862900000000000     -2.227030000000000      2.341810000000000
H       0.357820000000000     -3.666960000000000      1.286800000000000
H      -0.184450000000000     -2.654670000000000      2.681960000000000
H       2.188300000000000     -0.271370000000000      1.768970000000000
H       1.249850000000000     -0.979930000000000      3.066490000000000
H       3.384560000000000     -2.433260000000000      1.384680000000000
H       3.582170000000000     -1.807120000000000      3.074630000000000
H       2.438320000000000     -3.167930000000000      2.746200000000000
H      -1.854790000000000     -1.514360000000000      1.197130000000000
H      -1.338490000000000     -2.535780000000000     -0.176140000000000
H      -2.101070000000000     -3.288070000000000      1.272420000000000
Na      0.470410000000000     13.482989999999999     10.062419999999999
C      -1.068210000000000     10.624820000000000     10.538489999999999
C       0.055740000000000     10.611050000000001      8.528029999999999
O      -0.848900000000000     11.331970000000000      9.336430000000000
C      -2.054970000000000     11.400720000000000     11.399430000000001
C       0.298800000000000     11.381100000000000      7.238180000000000
H      -1.509590000000000      9.622240000000000     10.334809999999999
H      -0.120660000000000     10.523560000000000     11.115119999999999
H       1.036760000000000     10.489500000000000      9.041770000000000
H      -0.368950000000000      9.620900000000001      8.252409999999999
H       0.729960000000000     12.379500000000000      7.463670000000000
H       1.009570000000000     10.819760000000000      6.595040000000000
H      -0.656200000000000     11.513240000000000      6.686580000000000
H      -3.021390000000000     11.515910000000000     10.864100000000001
H      -2.234030000000000     10.855190000000000     12.350160000000001
H      -1.648130000000000     12.407320000000000     11.634420000000000
Na     -3.135480000000000     11.102560000000000      8.049690000000000
Mg     -0.426610000000000      4.368050000000000      8.912570000000001
C      -4.209820000000000      4.052900000000000      8.184270000000000
C      -3.108060000000000      4.110200000000000      6.158670000000000
O      -3.161660000000000      4.663420000000000      7.457720000000000
C      -4.558180000000000      4.912130000000000      9.390070000000000
C      -1.910330000000000      4.680860000000000      5.412410000000000
H      -5.139590000000000      3.961070000000000      7.578420000000000
H      -3.895170000000000      3.048580000000000      8.539000000000000
H      -2.998710000000000      3.004140000000000      6.196300000000000
H      -4.022660000000000      4.376200000000000      5.585460000000000
H      -0.969110000000000      4.431350000000000      5.942730000000000
H      -1.866860000000000      4.252120000000000      4.388630000000000
H      -2.001220000000000      5.784780000000000      5.337440000000000
H      -4.882560000000000      5.920580000000000      9.060730000000000
H      -5.372990000000000      4.433450000000000      9.972120000000000
H      -3.684320000000000      5.026650000000000     10.050360000000000
H      -0.086330000000000      6.843680000000000      6.747690000000000
C       1.738650000000000      6.050520000000000      7.665890000000000
C       0.291370000000000      6.518910000000000      7.738080000000000
C       1.892340000000000      4.857530000000000      6.714650000000000
H       2.358830000000000      6.901060000000000      7.314480000000000
H       2.075490000000000      5.752080000000000      8.683479999999999
H       1.315060000000000      3.987220000000000      7.096860000000000
H       1.505240000000000      5.126290000000000      5.708560000000000
C       3.358500000000000      4.457690000000000      6.577000000000000
H       0.180560000000000      7.331800000000000      8.482780000000000
H       3.946410000000000      5.309520000000000      6.172950000000000
H       3.776840000000000      4.160310000000000      7.562070000000000
H       3.449880000000000      3.601440000000000      5.875840000000000
C      -0.931060000000000      1.727050000000000      7.234000000000000
C      -1.523780000000000      0.526680000000000      7.581420000000000
C      -1.908720000000000      0.634810000000000      8.909459999999999
C      -1.553170000000000      1.904950000000000      9.309430000000001
N      -0.962860000000000      2.547840000000000      8.296130000000000
C      -1.743910000000000      2.546590000000000     10.674709999999999
N      -1.506760000000000      4.009030000000000     10.600390000000001
C      -1.226200000000000      4.760630000000000     11.839169999999999
H      -1.658050000000000     -0.332810000000000      6.941470000000000
H      -0.513610000000000      1.982550000000000      6.268100000000000
H      -2.400850000000000     -0.120110000000000      9.505910000000000
H      -2.789510000000000      2.385250000000000     11.007420000000000
H      -1.047950000000000      2.046720000000000     11.377000000000001
C       0.189020000000000      4.450760000000000     12.355020000000000
C      -1.310120000000000      6.268320000000000     11.522679999999999
C      -2.278620000000000      4.430750000000000     12.917500000000000
H       0.946930000000000      4.723470000000000     11.589200000000000
H       0.397640000000000      5.035400000000000     13.277740000000000
H       0.305760000000000      3.377160000000000     12.601400000000000
H      -2.318150000000000      6.546930000000000     11.150160000000000
H      -1.107750000000000      6.874780000000000     12.433020000000001
H      -0.566830000000000      6.550790000000000     10.747859999999999
H      -3.300250000000000      4.650530000000000     12.537450000000000
H      -2.234980000000000      3.359540000000000     13.204020000000000
H      -2.108370000000000      5.035380000000000     13.833570000000000

-C 0
6-31g(d,p)
****
-H 0
6-31g(d,p)
****
-Mg 0
6-31g(d,p)
****
-N 0
6-31+g(d,p)
****
-Na 0
6-31g(d,p)
****
-O 0
6-31+g(d,p)
****


