%chk=lowest10_c1_a2_speciation0_speciationDFT1_speciationDFT38_rank08_E180.89.chk
%nprocshared=20
%mem=40GB
#p opt=loose PM7/gen scf=xqc 

lowest10_c1_a2_speciation0_speciationDFT1_speciationDFT38_rank08_E180.89 DFT input

0 1
Mg      0.781100000000000     -0.339430000000000     -0.533820000000000
C      -0.335680000000000      2.145210000000000      1.314200000000000
C      -1.361580000000000      2.200670000000000     -0.847660000000000
O      -0.324120000000000      1.702010000000000     -0.031460000000000
C      -1.681830000000000      2.029750000000000      2.032910000000000
C      -1.228960000000000      3.693280000000000     -1.106220000000000
H       0.361560000000000      1.478300000000000      1.858160000000000
H       0.082770000000000      3.168570000000000      1.396260000000000
H      -1.273370000000000      1.686130000000000     -1.823560000000000
H      -2.365370000000000      1.918920000000000     -0.473240000000000
H      -1.992770000000000      4.001100000000000     -1.849900000000000
H      -0.219270000000000      3.922240000000000     -1.505610000000000
H      -1.390470000000000      4.259090000000000     -0.168080000000000
H      -2.093010000000000      1.012060000000000      1.930530000000000
H      -2.406630000000000      2.767060000000000      1.633220000000000
H      -1.540410000000000      2.229080000000000      3.113910000000000
H       2.620460000000000      1.024340000000000     -1.898490000000000
C       1.801700000000000     -0.339160000000000     -3.409310000000000
C       2.298540000000000     -0.032780000000000     -1.986050000000000
C       0.553010000000000      0.446650000000000     -3.856660000000000
H       2.630620000000000     -0.136630000000000     -4.118830000000000
H       1.546270000000000     -1.419040000000000     -3.465030000000000
H       0.300820000000000      0.138710000000000     -4.896640000000000
H      -0.309690000000000      0.177100000000000     -3.214810000000000
C       0.745290000000000      1.963100000000000     -3.852330000000000
H       3.144230000000000     -0.697510000000000     -1.725580000000000
H       0.951820000000000      2.325490000000000     -2.827110000000000
H       1.583340000000000      2.252730000000000     -4.519370000000000
H      -0.182930000000000      2.459100000000000     -4.212250000000000
C      -3.108530000000000     -0.826470000000000     -0.889150000000000
C      -2.196960000000000     -1.521370000000000     -1.650530000000000
C      -1.205600000000000     -1.973960000000000     -0.797710000000000
C      -1.489490000000000     -1.545690000000000      0.437050000000000
N      -2.705690000000000     -0.834120000000000      0.453230000000000
C      -0.626870000000000     -1.738310000000000      1.655910000000000
N       0.678310000000000     -1.108840000000000      1.420140000000000
C       1.757700000000000     -1.297560000000000      2.419290000000000
H      -2.246870000000000     -1.658750000000000     -2.722280000000000
H      -3.995220000000000     -0.330430000000000     -1.257570000000000
H      -0.322450000000000     -2.529410000000000     -1.090240000000000
H      -0.523020000000000     -2.821010000000000      1.851480000000000
H      -1.125060000000000     -1.245830000000000      2.517410000000000
C       2.209810000000000     -2.770560000000000      2.462110000000000
C       2.957860000000000     -0.423600000000000      2.019470000000000
C       1.286530000000000     -0.865460000000000      3.828960000000000
H       2.580760000000000     -3.091880000000000      1.466660000000000
H       3.025000000000000     -2.906480000000000      3.206480000000000
H       1.381910000000000     -3.441980000000000      2.767270000000000
H       2.680040000000000      0.651480000000000      2.014590000000000
H       3.798960000000000     -0.559280000000000      2.736350000000000
H       3.316840000000000     -0.698760000000000      1.005700000000000
H       0.956370000000000      0.195210000000000      3.826870000000000
H       0.444550000000000     -1.494020000000000      4.186850000000000
H       2.110250000000000     -0.966610000000000      4.569520000000000
Na     -4.641090000000000    -12.934229999999999     -0.284080000000000
C      -3.458990000000000    -10.558310000000001      1.641310000000000
C      -5.761960000000000    -10.519220000000001      1.642270000000000
O      -4.610940000000000    -10.549709999999999      0.825820000000000
C      -2.220840000000000    -10.577489999999999      0.756540000000000
C      -7.000710000000000    -10.525840000000001      0.757880000000000
H      -3.412280000000000     -9.640470000000001      2.268730000000000
H      -3.434380000000000    -11.469650000000000      2.281140000000000
H      -5.807640000000000    -11.420199999999999      2.295860000000000
H      -5.786450000000000     -9.589700000000001      2.255780000000000
H      -7.020240000000000    -11.444900000000001      0.134190000000000
H      -7.913540000000000    -10.502290000000000      1.390150000000000
H      -7.000970000000000     -9.635660000000000      0.093550000000000
H      -2.201350000000000     -9.676990000000000      0.106550000000000
H      -1.307850000000000    -10.583259999999999      1.389070000000000
H      -2.221100000000000    -11.486670000000000      0.118430000000000
Na     -4.583290000000000     -8.157999999999999     -0.281020000000000
Mg     -6.128640000000000     -4.116790000000000      4.784650000000000
H      -6.910060000000000     -1.569950000000000      6.343140000000000
C      -5.165890000000000     -2.230460000000000      7.484570000000000
C      -6.449060000000000     -2.505090000000000      6.722470000000000
C      -5.470930000000000     -1.374800000000000      8.710710000000001
H      -4.714010000000000     -3.197690000000000      7.795130000000000
H      -4.452390000000000     -1.704920000000000      6.812610000000000
H      -5.931860000000000     -0.416950000000000      8.384650000000001
H      -6.188690000000000     -1.915030000000000      9.366180000000000
C      -4.206610000000000     -1.073180000000000      9.501760000000001
H      -7.169660000000000     -3.086590000000000      7.334860000000000
H      -3.739200000000000     -2.017230000000000      9.853949999999999
H      -3.482420000000000     -0.516310000000000      8.869960000000001
H      -4.469190000000000     -0.450930000000000     10.382350000000001
C      -8.318239999999999     -3.844920000000000      2.509730000000000
C      -8.388249999999999     -4.366860000000000      1.227660000000000
C      -7.230920000000000     -5.105210000000000      1.031840000000000
C      -6.498570000000000     -4.991640000000000      2.191420000000000
N      -7.170850000000000     -4.237450000000000      3.077890000000000
C      -5.145160000000000     -5.601270000000000      2.502750000000000
N      -4.642510000000000     -5.084530000000000      3.793310000000000
C      -3.333190000000000     -5.497700000000000      4.327220000000000
H      -9.191390000000000     -4.229020000000000      0.517950000000000
H      -9.064109999999999     -3.222460000000000      2.990650000000000
H      -6.950840000000000     -5.654550000000000      0.142220000000000
H      -4.442920000000000     -5.320430000000000      1.694480000000000
H      -5.269460000000000     -6.703440000000000      2.538430000000000
C      -2.211820000000000     -4.998810000000000      3.396490000000000
C      -3.138230000000000     -4.854680000000000      5.712290000000000
C      -3.264390000000000     -7.027330000000000      4.476420000000000
H      -2.262180000000000     -3.892240000000000      3.300630000000000
H      -1.213270000000000     -5.272320000000000      3.799060000000000
H      -2.299720000000000     -5.442550000000000      2.384280000000000
H      -3.925170000000000     -5.195120000000000      6.418700000000000
H      -2.147780000000000     -5.132160000000000      6.137350000000000
H      -3.184260000000000     -3.746670000000000      5.642240000000000
H      -4.076400000000000     -7.386530000000000      5.144830000000000
H      -3.366440000000000     -7.525720000000000      3.491960000000000
H      -2.287600000000000     -7.333440000000000      4.908750000000000

-C 0
6-31g(d,p)
****
-H 0
6-31g(d,p)
****
-Mg 0
6-31g(d,p)
****
-N 0
6-31+g(d,p)
****
-Na 0
6-31g(d,p)
****
-O 0
6-31+g(d,p)
****


