%chk=lowest10_c1_a2_speciation0_speciationDFT0_speciationDFT37b_rank07_E164.60.chk
%nprocshared=20
%mem=40GB
#p opt=loose PM7/gen scf=xqc 

lowest10_c1_a2_speciation0_speciationDFT0_speciationDFT37b_rank07_E164.60 DFT input

0 1
Mg     -0.154380000000000     -0.422220000000000      0.356320000000000
C      -0.420790000000000      1.756690000000000      2.664990000000000
C      -2.440290000000000      0.512920000000000      2.413990000000000
O      -1.350830000000000      1.154300000000000      1.786320000000000
C       0.235840000000000      0.785490000000000      3.645480000000000
C      -3.411580000000000      1.513340000000000      3.018410000000000
H       0.389070000000000      2.146690000000000      2.022510000000000
H      -0.842470000000000      2.649560000000000      3.167560000000000
H      -2.979240000000000     -0.040150000000000      1.613790000000000
H      -2.127170000000000     -0.261980000000000      3.143630000000000
H      -3.676040000000000      2.278540000000000      2.258430000000000
H      -4.331900000000000      0.985340000000000      3.342720000000000
H      -2.952300000000000      2.003920000000000      3.899860000000000
H       0.566420000000000     -0.133140000000000      3.121340000000000
H       1.121380000000000      1.272800000000000      4.104560000000000
H      -0.469600000000000      0.515180000000000      4.455650000000000
H       0.644140000000000     -2.642810000000000      1.434520000000000
C      -1.165900000000000     -3.131240000000000      0.319510000000000
C      -0.382940000000000     -2.257500000000000      1.277680000000000
C      -0.510430000000000     -3.138010000000000     -1.066180000000000
H      -1.195510000000000     -4.151720000000000      0.746510000000000
H      -2.203130000000000     -2.739420000000000      0.222620000000000
H      -0.591100000000000     -2.128760000000000     -1.520930000000000
H       0.566310000000000     -3.396830000000000     -0.985630000000000
C      -1.182080000000000     -4.158970000000000     -1.976080000000000
H      -0.905380000000000     -2.151970000000000      2.249350000000000
H      -1.054140000000000     -5.175320000000000     -1.545710000000000
H      -2.265400000000000     -3.939830000000000     -2.082940000000000
H      -0.708150000000000     -4.137810000000000     -2.979840000000000
C      -0.937830000000000     -0.082760000000000     -3.347070000000000
C      -1.876440000000000      0.202910000000000     -2.373960000000000
C      -1.262540000000000      1.045910000000000     -1.468390000000000
C      -0.012600000000000      1.210480000000000     -1.893830000000000
N       0.173830000000000      0.509320000000000     -3.095070000000000
C       1.076690000000000      2.007450000000000     -1.218690000000000
N       1.533220000000000      1.355030000000000      0.021190000000000
C       2.811930000000000      0.603360000000000     -0.014810000000000
H      -2.886390000000000     -0.186590000000000     -2.314950000000000
H      -1.084030000000000     -0.721640000000000     -4.203190000000000
H      -1.711170000000000      1.465070000000000     -0.583060000000000
H       0.677670000000000      3.013340000000000     -0.967910000000000
H       1.904530000000000      2.151880000000000     -1.931080000000000
C       3.989630000000000      1.546970000000000     -0.326100000000000
C       3.041280000000000      0.004830000000000      1.388130000000000
C       2.771670000000000     -0.557380000000000     -1.031680000000000
H       3.984520000000000      2.406930000000000      0.376820000000000
H       4.955820000000000      1.008220000000000     -0.219470000000000
H       3.953840000000000      1.931600000000000     -1.363070000000000
H       2.241390000000000     -0.720870000000000      1.641090000000000
H       4.011750000000000     -0.536320000000000      1.443610000000000
H       3.041840000000000      0.803210000000000      2.161130000000000
H       2.001380000000000     -1.306270000000000     -0.749920000000000
H       2.550110000000000     -0.191720000000000     -2.052670000000000
H       3.754860000000000     -1.076170000000000     -1.067780000000000
Na      3.186910000000000     -4.401980000000000      5.491970000000000
C       6.270020000000000     -3.787360000000000      6.333560000000000
C       4.845960000000000     -3.265370000000000      8.067959999999999
O       5.093470000000000     -3.092920000000000      6.688910000000000
C       6.535510000000000     -3.592590000000000      4.847240000000000
C       3.569020000000000     -2.526250000000000      8.442449999999999
H       7.148580000000000     -3.388430000000000      6.890210000000000
H       6.154600000000000     -4.879820000000000      6.517590000000000
H       4.698150000000000     -4.341960000000000      8.312920000000000
H       5.676960000000000     -2.837180000000000      8.673750000000000
H       2.709180000000000     -2.931940000000000      7.867920000000000
H       3.366750000000000     -2.652650000000000      9.527240000000001
H       3.676400000000000     -1.442830000000000      8.221340000000000
H       6.668240000000000     -2.513380000000000      4.620310000000000
H       7.459520000000000     -4.136270000000000      4.556650000000000
H       5.685010000000000     -3.987140000000000      4.251650000000000
Na      5.779890000000000     -0.556910000000000      6.485800000000000
Mg     -1.549330000000000     -4.357060000000000      7.429300000000000
H      -3.839180000000000     -2.927770000000000      9.057580000000000
C      -5.007420000000000     -4.527180000000000      8.119800000000000
C      -3.876340000000000     -3.512310000000000      8.116110000000001
C      -4.904130000000000     -5.533500000000000      9.274360000000000
H      -5.963520000000000     -3.970900000000000      8.211220000000001
H      -5.012210000000000     -5.074520000000000      7.153220000000000
H      -4.909090000000000     -4.998520000000000     10.248950000000001
H      -5.801060000000000     -6.186570000000000      9.229699999999999
C      -3.665890000000000     -6.428890000000000      9.192720000000000
H      -3.971810000000000     -2.828300000000000      7.245330000000000
H      -2.737980000000000     -5.836410000000000      9.323340000000000
H      -3.711070000000000     -7.187850000000000     10.003489999999999
H      -3.630440000000000     -6.960530000000000      8.217800000000000
C       0.312470000000000     -5.008470000000000      9.920980000000000
C       1.426190000000000     -5.822150000000000     10.049659999999999
C       1.647880000000000     -6.403440000000000      8.810420000000001
C       0.648710000000000     -5.936120000000000      7.985550000000000
N      -0.138370000000000     -5.086430000000000      8.658469999999999
C       0.415400000000000     -6.273800000000000      6.525120000000000
N      -0.902000000000000     -5.755890000000000      6.099040000000000
C      -1.401520000000000     -5.987130000000000      4.732020000000000
H       2.014210000000000     -5.973950000000000     10.944630000000000
H      -0.132600000000000     -4.400390000000000     10.697760000000001
H       2.435190000000000     -7.095820000000000      8.546220000000000
H       1.234260000000000     -5.817830000000000      5.933670000000000
H       0.430950000000000     -7.374100000000000      6.414950000000000
C      -1.627280000000000     -7.495940000000000      4.510810000000000
C      -2.752260000000000     -5.266090000000000      4.574280000000000
C      -0.416990000000000     -5.437070000000000      3.685330000000000
H      -2.343420000000000     -7.890840000000000      5.264930000000000
H      -2.041500000000000     -7.689100000000000      3.498390000000000
H      -0.679740000000000     -8.064850000000000      4.598140000000000
H      -2.635070000000000     -4.170860000000000      4.719300000000000
H      -3.172780000000000     -5.439550000000000      3.558530000000000
H      -3.485550000000000     -5.641280000000000      5.319230000000000
H      -0.254960000000000     -4.348780000000000      3.839500000000000
H       0.561240000000000     -5.956500000000000      3.745620000000000
H      -0.815770000000000     -5.596000000000000      2.661090000000000

-C 0
6-31g(d,p)
****
-H 0
6-31g(d,p)
****
-Mg 0
6-31g(d,p)
****
-N 0
6-31+g(d,p)
****
-Na 0
6-31g(d,p)
****
-O 0
6-31+g(d,p)
****


