%chk=lowest10_c1_a2_speciation7_speciationDFT36_speciationDFT36_rank03_E222.05.chk
%nprocshared=20
%mem=40GB
#p opt=loose PM7/gen scf=xqc 

lowest10_c1_a2_speciation7_speciationDFT36_speciationDFT36_rank03_E222.05 DFT input

0 1
Mg     -0.026160000000000     -0.762620000000000      0.089650000000000
C       1.505980000000000      2.602080000000000     -0.580890000000000
C       1.000300000000000      1.624010000000000     -2.607530000000000
O       1.509560000000000      1.389830000000000     -1.309880000000000
C       2.424530000000000      2.476420000000000      0.625130000000000
C       0.913940000000000      0.308660000000000     -3.370380000000000
H       1.889430000000000      3.453480000000000     -1.186180000000000
H       0.480530000000000      2.834450000000000     -0.226440000000000
H      -0.014510000000000      2.072330000000000     -2.566460000000000
H       1.673870000000000      2.300930000000000     -3.174290000000000
H       0.225770000000000     -0.395380000000000     -2.860510000000000
H       0.531850000000000      0.495430000000000     -4.396330000000000
H       1.919640000000000     -0.155400000000000     -3.440470000000000
H       3.457820000000000      2.242040000000000      0.298530000000000
H       2.421160000000000      3.424260000000000      1.202320000000000
H       2.086300000000000      1.671280000000000      1.292320000000000
H       1.855900000000000     -2.262000000000000     -2.000620000000000
C       0.266440000000000     -3.496270000000000     -1.100100000000000
C       1.392300000000000     -2.472530000000000     -1.017360000000000
C      -0.845500000000000     -3.043690000000000     -2.056590000000000
H       0.704380000000000     -4.451710000000000     -1.452660000000000
H      -0.166720000000000     -3.645110000000000     -0.085680000000000
H      -1.330520000000000     -2.118010000000000     -1.674620000000000
H      -0.415580000000000     -2.831300000000000     -3.058550000000000
C      -1.904580000000000     -4.133180000000000     -2.208790000000000
H       2.153120000000000     -2.764540000000000     -0.265140000000000
H      -1.438770000000000     -5.059180000000000     -2.609130000000000
H      -2.378580000000000     -4.358450000000000     -1.229870000000000
H      -2.691100000000000     -3.800290000000000     -2.918680000000000
C      -2.093490000000000      0.957430000000000     -1.575540000000000
C      -2.837670000000000      2.070040000000000     -1.225160000000000
C      -2.547140000000000      2.342640000000000      0.103570000000000
C      -1.629880000000000      1.398770000000000      0.502360000000000
N      -1.358930000000000      0.578440000000000     -0.522220000000000
C      -0.999570000000000      1.221680000000000      1.872230000000000
N       0.159290000000000      0.301190000000000      1.806230000000000
C       0.665740000000000     -0.313930000000000      3.049360000000000
H      -3.514720000000000      2.617130000000000     -1.864630000000000
H      -2.081700000000000      0.471810000000000     -2.545350000000000
H      -2.949200000000000      3.142710000000000      0.708240000000000
H      -0.644950000000000      2.203880000000000      2.245010000000000
H      -1.792530000000000      0.829270000000000      2.538180000000000
C      -0.308200000000000     -1.384240000000000      3.573280000000000
C       2.016020000000000     -0.995510000000000      2.745460000000000
C       0.896560000000000      0.772040000000000      4.119400000000000
H      -0.435890000000000     -2.195120000000000      2.823920000000000
H       0.087000000000000     -1.834180000000000      4.510510000000000
H      -1.302440000000000     -0.954390000000000      3.802940000000000
H       2.764220000000000     -0.264880000000000      2.373180000000000
H       2.433450000000000     -1.470320000000000      3.661010000000000
H       1.893000000000000     -1.785510000000000      1.975390000000000
H       1.589520000000000      1.550630000000000      3.732090000000000
H      -0.058840000000000      1.262350000000000      4.399040000000000
H       1.338550000000000      0.335050000000000      5.039380000000000
Na      1.830990000000000     13.238560000000000      8.170859999999999
C       3.550780000000000     15.918839999999999      8.407439999999999
C       3.246430000000000     15.166060000000000     10.607980000000000
O       2.683720000000000     15.264960000000000      9.313630000000000
C       4.476840000000000     14.917800000000000      7.724040000000000
C       2.883980000000000     16.379049999999999     11.461110000000000
H       2.925360000000000     16.403279999999999      7.627970000000000
H       4.135430000000000     16.736590000000000      8.885750000000000
H       2.825330000000000     14.258509999999999     11.090870000000001
H       4.349430000000000     15.021630000000000     10.586330000000000
H       1.782270000000000     16.472449999999998     11.556310000000000
H       3.316450000000000     16.257259999999999     12.476139999999999
H       3.288820000000000     17.309339999999999     11.012210000000000
H       3.881750000000000     14.149500000000000      7.187450000000000
H       5.119920000000000     15.448530000000000      6.991740000000000
H       5.127800000000000     14.415889999999999      8.468470000000000
C       4.226730000000000     11.334920000000000      9.559740000000000
C       2.605060000000000     10.003110000000000      8.426550000000001
O       2.965130000000000     11.282719999999999      8.917400000000001
C       5.402540000000000     11.007429999999999      8.638690000000000
C       2.443870000000000      8.950720000000000      9.523289999999999
H       4.365480000000000     12.384860000000000      9.893000000000001
H       4.243170000000000     10.725610000000000     10.486430000000000
H       1.610060000000000     10.119630000000001      7.945410000000000
H       3.285650000000000      9.661590000000000      7.619510000000000
H       1.741850000000000      9.317030000000001     10.301610000000000
H       2.036550000000000      8.018330000000001      9.079129999999999
H       3.421300000000000      8.705560000000000      9.985680000000000
H       5.373800000000000     11.654320000000000      7.736740000000000
H       6.353130000000000     11.190340000000001      9.182560000000000
H       5.388000000000000      9.940899999999999      8.336499999999999
Na      0.491350000000000     16.175070000000002      9.607699999999999
C      -1.022140000000000     14.022830000000001      7.576340000000000
C      -1.044640000000000     13.294269999999999      9.799280000000000
O      -0.358670000000000     14.050940000000001      8.822570000000001
C      -0.451040000000000     15.123559999999999      6.691530000000000
C      -0.785800000000000     11.795830000000000      9.649960000000000
H      -0.838080000000000     13.051900000000000      7.072680000000000
H      -2.114870000000000     14.211000000000000      7.676790000000000
H      -0.652090000000000     13.607910000000000     10.790279999999999
H      -2.134130000000000     13.518150000000000      9.816549999999999
H       0.303450000000000     11.590420000000000      9.695840000000000
H      -1.285570000000000     11.252070000000000     10.478830000000000
H      -1.191720000000000     11.416320000000001      8.690030000000000
H       0.642910000000000     14.981430000000000      6.559010000000000
H      -0.939260000000000     15.098290000000000      5.694540000000000
H      -0.631270000000000     16.117280000000001      7.151930000000000
C      -2.112860000000000     18.217890000000001      9.444889999999999
C      -0.256130000000000     19.263829999999999      8.538840000000000
O      -0.770400000000000     18.060240000000000      9.054480000000000
C      -2.598200000000000     16.893129999999999     10.018310000000000
C       1.183890000000000     19.017040000000001      8.109159999999999
H      -2.208800000000000     18.992830000000001     10.238600000000000
H      -2.750510000000000     18.468730000000001      8.567729999999999
H      -0.831720000000000     19.589739999999999      7.643360000000000
H      -0.253710000000000     20.058789999999998      9.318250000000001
H       1.214610000000000     18.226070000000000      7.329470000000000
H       1.625350000000000     19.947469999999999      7.695740000000000
H       1.790060000000000     18.685340000000000      8.979979999999999
H      -1.981800000000000     16.609130000000000     10.898540000000001
H      -3.659460000000000     16.975829999999998     10.331460000000000
H      -2.512100000000000     16.096200000000000      9.250870000000001
Mg     -3.618900000000000      6.818160000000000      6.450060000000000
C      -2.717840000000000      7.333540000000000      2.721460000000000
C      -4.629490000000000      8.549020000000001      3.154550000000000
O      -3.961960000000000      7.326980000000000      3.393210000000000
C      -2.198780000000000      5.908720000000000      2.604080000000000
C      -5.914930000000000      8.593059999999999      3.968620000000000
H      -2.805840000000000      7.727830000000000      1.683690000000000
H      -1.979600000000000      7.938740000000000      3.289270000000000
H      -4.000080000000000      9.416050000000000      3.452640000000000
H      -4.904850000000000      8.638059999999999      2.081120000000000
H      -5.689940000000000      8.518260000000000      5.051740000000000
H      -6.445520000000000      9.550490000000000      3.780640000000000
H      -6.577650000000000      7.751450000000000      3.677450000000000
H      -2.919410000000000      5.286820000000000      2.035360000000000
H      -1.217120000000000      5.904660000000000      2.086300000000000
H      -2.064870000000000      5.461460000000000      3.601490000000000
H      -6.779270000000000      6.157070000000000      5.718220000000000
C      -6.247160000000000      6.316980000000000      7.837190000000000
C      -5.982770000000000      5.831700000000000      6.417220000000000
C      -6.317410000000000      7.847830000000000      7.901370000000000
H      -7.208050000000000      5.878390000000000      8.177420000000000
H      -5.429840000000000      5.959980000000000      8.502400000000000
H      -5.337490000000000      8.288230000000000      7.614330000000000
H      -7.093160000000000      8.218249999999999      7.197510000000000
C      -6.679040000000000      8.317180000000000      9.307750000000000
H      -5.876290000000000      4.727770000000000      6.392330000000000
H      -7.668410000000000      7.905380000000000      9.601319999999999
H      -5.913320000000000      7.984150000000000     10.040179999999999
H      -6.737720000000000      9.425890000000001      9.330159999999999
C      -3.180200000000000      9.910650000000000      5.919260000000000
C      -2.033660000000000     10.638840000000000      5.659380000000000
C      -0.974390000000000      9.742649999999999      5.673260000000000
C      -1.524650000000000      8.501980000000000      5.915630000000000
N      -2.849070000000000      8.618990000000000      6.066780000000000
C      -0.813430000000000      7.163070000000000      6.028940000000000
N      -1.791760000000000      6.048390000000000      5.984670000000000
C      -1.396880000000000      4.717780000000000      6.486210000000000
H      -1.978830000000000     11.703180000000000      5.481050000000000
H      -4.188140000000000     10.300990000000001      5.984270000000000
H       0.070000000000000      9.968909999999999      5.509640000000000
H      -0.123590000000000      7.046610000000000      5.168260000000000
H      -0.233300000000000      7.172740000000000      6.972960000000000
C      -1.307710000000000      4.720600000000000      8.021590000000000
C      -2.474680000000000      3.698680000000000      6.062810000000000
C      -0.051980000000000      4.286480000000000      5.866150000000000
H      -2.289280000000000      4.996510000000000      8.464270000000001
H      -1.028780000000000      3.709790000000000      8.391810000000000
H      -0.543520000000000      5.436360000000000      8.383089999999999
H      -2.575300000000000      3.653000000000000      4.958060000000000
H      -2.214140000000000      2.677700000000000      6.419520000000000
H      -3.463520000000000      3.971440000000000      6.488010000000000
H      -0.121270000000000      4.289840000000000      4.756180000000000
H       0.765390000000000      4.973260000000000      6.168570000000000
H       0.224110000000000      3.262390000000000      6.195840000000000

-C 0
6-31g(d,p)
****
-H 0
6-31g(d,p)
****
-Mg 0
6-31g(d,p)
****
-N 0
6-31+g(d,p)
****
-Na 0
6-31g(d,p)
****
-O 0
6-31+g(d,p)
****


