%chk=lowest10_c1_a2_speciation0_speciationDFT0_speciationDFT36_rank09_E181.03.chk
%nprocshared=20
%mem=40GB
#p opt=loose PM7/gen scf=xqc 

lowest10_c1_a2_speciation0_speciationDFT0_speciationDFT36_rank09_E181.03 DFT input

0 1
Mg     -0.293390000000000      0.405460000000000     -0.619720000000000
C       0.967630000000000      0.049960000000000      2.903110000000000
C      -1.337330000000000      0.100650000000000      2.963790000000000
O      -0.187740000000000      0.658860000000000      2.359870000000000
C       2.186950000000000      0.908810000000000      2.603290000000000
C      -2.588910000000000      0.683860000000000      2.321070000000000
H       0.907970000000000     -0.043810000000000      4.010330000000000
H       1.118920000000000     -0.954320000000000      2.456270000000000
H      -1.361170000000000     -1.002430000000000      2.840320000000000
H      -1.366650000000000      0.345590000000000      4.046490000000000
H      -2.624130000000000      0.440100000000000      1.240050000000000
H      -3.492230000000000      0.259860000000000      2.808510000000000
H      -2.598860000000000      1.786900000000000      2.443430000000000
H       2.060800000000000      1.920920000000000      3.038050000000000
H       3.096630000000000      0.432450000000000      3.024070000000000
H       2.331420000000000      1.018490000000000      1.519300000000000
H      -2.280190000000000      2.785700000000000      0.115690000000000
C      -2.432170000000000      2.026360000000000     -1.948630000000000
C      -1.635800000000000      2.489640000000000     -0.734700000000000
C      -3.342520000000000      0.837080000000000     -1.612420000000000
H      -3.041730000000000      2.883320000000000     -2.299320000000000
H      -1.726380000000000      1.725640000000000     -2.755020000000000
H      -2.732180000000000     -0.045840000000000     -1.319180000000000
H      -4.010770000000000      1.103180000000000     -0.765970000000000
C      -4.210860000000000      0.464650000000000     -2.812050000000000
H      -0.920550000000000      3.294490000000000     -1.000360000000000
H      -4.842060000000000      1.331060000000000     -3.104660000000000
H      -3.579150000000000      0.166790000000000     -3.675710000000000
H      -4.878150000000000     -0.382930000000000     -2.548020000000000
C      -1.506470000000000     -2.245250000000000      0.609020000000000
C      -0.906850000000000     -3.445560000000000      0.946690000000000
C       0.434740000000000     -3.330010000000000      0.613140000000000
C       0.599770000000000     -2.063410000000000      0.101810000000000
N      -0.574860000000000     -1.419270000000000      0.115810000000000
C       1.866490000000000     -1.428080000000000     -0.444330000000000
N       1.700270000000000      0.035800000000000     -0.600260000000000
C       2.637250000000000      0.782210000000000     -1.464010000000000
H      -1.393290000000000     -4.305260000000000      1.383280000000000
H      -2.553610000000000     -1.992400000000000      0.734170000000000
H       1.204800000000000     -4.078330000000000      0.737760000000000
H       2.703350000000000     -1.611220000000000      0.259150000000000
H       2.074590000000000     -1.918590000000000     -1.415100000000000
C       2.384760000000000      0.473530000000000     -2.950490000000000
C       2.416900000000000      2.292280000000000     -1.238570000000000
C       4.091870000000000      0.440360000000000     -1.084500000000000
H       1.352910000000000      0.768170000000000     -3.239710000000000
H       3.100750000000000      1.040560000000000     -3.585270000000000
H       2.521530000000000     -0.602480000000000     -3.173160000000000
H       2.598290000000000      2.574610000000000     -0.180410000000000
H       3.109010000000000      2.890870000000000     -1.871590000000000
H       1.377370000000000      2.580890000000000     -1.499330000000000
H       4.266500000000000      0.651840000000000     -0.006920000000000
H       4.308320000000000     -0.631990000000000     -1.270030000000000
H       4.809620000000000      1.041850000000000     -1.681090000000000
Na     -3.262750000000000     -3.911310000000000      8.511760000000001
C      -5.356560000000000     -3.151770000000000     10.885970000000000
C      -5.960340000000000     -5.139880000000000      9.890350000000000
O      -5.601460000000000     -3.795290000000000      9.653639999999999
C      -4.976430000000000     -1.700970000000000     10.625019999999999
C      -6.209470000000000     -5.832230000000000      8.557829999999999
H      -6.270970000000000     -3.153650000000000     11.522140000000000
H      -4.507380000000000     -3.634210000000000     11.421490000000000
H      -5.137430000000000     -5.685150000000000     10.406470000000001
H      -6.900670000000000     -5.197660000000000     10.484750000000000
H      -5.289330000000000     -5.808280000000000      7.935930000000000
H      -6.496200000000000     -6.890900000000000      8.732870000000000
H      -7.032040000000000     -5.323340000000000      8.011350000000000
H      -5.803250000000000     -1.177260000000000     10.099750000000000
H      -4.780450000000000     -1.185020000000000     11.588950000000001
H      -4.059950000000000     -1.652170000000000      9.999370000000001
Na     -7.838120000000000     -2.687610000000000      8.804100000000000
Mg     -2.245900000000000     -7.627980000000000      5.145320000000000
H      -3.191400000000000     -9.674540000000000      2.938030000000000
C      -1.026280000000000     -9.767030000000000      2.613760000000000
C      -2.296980000000000     -9.020860000000001      2.985250000000000
C      -0.754310000000000    -10.973590000000000      3.522930000000000
H      -1.133040000000000    -10.121219999999999      1.567290000000000
H      -0.163850000000000     -9.068519999999999      2.660420000000000
H      -1.606530000000000    -11.686109999999999      3.477050000000000
H       0.151250000000000    -11.486630000000000      3.135960000000000
C      -0.490860000000000    -10.589930000000001      4.980660000000000
H      -2.434630000000000     -8.137070000000000      2.325580000000000
H      -1.396820000000000    -10.151960000000001      5.445980000000000
H      -0.211890000000000    -11.501220000000000      5.552600000000000
H       0.347260000000000     -9.863840000000000      5.049220000000000
C      -3.543140000000000     -9.142030000000000      7.619850000000000
C      -3.386610000000000     -8.975190000000000      8.986200000000000
C      -2.468450000000000     -7.951720000000000      9.165780000000000
C      -2.089090000000000     -7.552800000000000      7.903230000000000
N      -2.753140000000000     -8.263890000000000      6.981810000000000
C      -1.090000000000000     -6.474040000000000      7.529710000000000
N      -0.798020000000000     -6.545190000000000      6.082190000000000
C       0.180290000000000     -5.635640000000000      5.459220000000000
H      -3.886710000000000     -9.533609999999999      9.765760000000000
H      -4.193380000000000     -9.855280000000000      7.129880000000000
H      -2.109170000000000     -7.555540000000000     10.105639999999999
H      -1.528390000000000     -5.492950000000000      7.801140000000000
H      -0.159370000000000     -6.648110000000000      8.101410000000000
C       1.585350000000000     -5.918600000000000      6.026540000000000
C       0.205100000000000     -5.905030000000000      3.943980000000000
C      -0.204570000000000     -4.164770000000000      5.697860000000000
H       1.863740000000000     -6.980770000000000      5.847980000000000
H       2.345250000000000     -5.269930000000000      5.541260000000000
H       1.628540000000000     -5.725630000000000      7.117470000000000
H      -0.790460000000000     -5.708590000000000      3.492550000000000
H       0.951250000000000     -5.250010000000000      3.440980000000000
H       0.479530000000000     -6.961310000000000      3.738480000000000
H      -1.216700000000000     -3.958550000000000      5.288830000000000
H      -0.200510000000000     -3.922840000000000      6.780600000000000
H       0.523110000000000     -3.487540000000000      5.200230000000000

-C 0
6-31g(d,p)
****
-H 0
6-31g(d,p)
****
-Mg 0
6-31g(d,p)
****
-N 0
6-31+g(d,p)
****
-Na 0
6-31g(d,p)
****
-O 0
6-31+g(d,p)
****


