%chk=lowest10_c1_a2_speciation0_speciationDFT0_speciationDFT96_rank05_E186.39.chk
%nprocshared=20
%mem=40GB
#p opt=loose PM7/gen scf=xqc 

lowest10_c1_a2_speciation0_speciationDFT0_speciationDFT96_rank05_E186.39 DFT input

0 1
Mg      0.187260000000000      0.452650000000000     -0.180890000000000
C       0.214250000000000     -1.882380000000000     -2.776050000000000
C       1.731840000000000     -2.387470000000000     -1.004140000000000
O       0.604110000000000     -1.649550000000000     -1.435380000000000
C      -0.291620000000000     -3.298850000000000     -3.028650000000000
C       3.014170000000000     -2.040650000000000     -1.755920000000000
H      -0.631210000000000     -1.189740000000000     -2.978490000000000
H       1.006310000000000     -1.607130000000000     -3.498050000000000
H       1.905540000000000     -2.103640000000000      0.052790000000000
H       1.532770000000000     -3.478000000000000     -0.982790000000000
H       3.176830000000000     -0.942990000000000     -1.750310000000000
H       3.873390000000000     -2.532230000000000     -1.253900000000000
H       2.970360000000000     -2.408040000000000     -2.799910000000000
H      -1.097710000000000     -3.558660000000000     -2.313460000000000
H      -0.696650000000000     -3.357320000000000     -4.060750000000000
H       0.535890000000000     -4.029880000000000     -2.940160000000000
H      -0.426530000000000      1.657100000000000     -2.811310000000000
C       1.760700000000000      1.559590000000000     -2.986360000000000
C       0.489980000000000      1.818800000000000     -2.207260000000000
C       1.858640000000000      2.550650000000000     -4.132670000000000
H       2.636890000000000      1.667510000000000     -2.314400000000000
H       1.745710000000000      0.523720000000000     -3.377170000000000
H       0.971840000000000      2.432490000000000     -4.792860000000000
H       1.870350000000000      3.582930000000000     -3.719930000000000
C       3.124020000000000      2.315770000000000     -4.941530000000000
H       0.496520000000000      2.811380000000000     -1.711270000000000
H       4.019600000000000      2.439980000000000     -4.295900000000000
H       3.119670000000000      1.290540000000000     -5.369720000000000
H       3.166560000000000      3.054090000000000     -5.767430000000000
C      -3.031450000000000      0.137920000000000      3.454140000000000
C      -2.285550000000000      1.044040000000000      4.175680000000000
C      -0.953230000000000      0.777890000000000      3.899260000000000
C      -0.939220000000000     -0.231060000000000      3.032030000000000
N      -2.260630000000000     -0.629610000000000      2.776940000000000
C       0.250730000000000     -0.949090000000000      2.425410000000000
N       1.088280000000000     -0.171360000000000      1.494290000000000
C       2.117480000000000      0.796560000000000      1.898770000000000
H      -2.676560000000000      1.803430000000000      4.841200000000000
H      -4.108550000000000      0.055010000000000      3.436940000000000
H      -0.112280000000000      1.291910000000000      4.329590000000000
H      -0.167470000000000     -1.783970000000000      1.822680000000000
H       0.864140000000000     -1.416800000000000      3.211420000000000
C       2.726970000000000      0.423750000000000      3.252520000000000
C       3.230700000000000      0.752870000000000      0.832910000000000
C       1.539880000000000      2.226930000000000      1.901350000000000
H       3.133280000000000     -0.610160000000000      3.200110000000000
H       3.547660000000000      1.120760000000000      3.514130000000000
H       1.964610000000000      0.465260000000000      4.051590000000000
H       2.820850000000000      1.000580000000000     -0.166810000000000
H       4.035180000000000      1.484780000000000      1.061710000000000
H       3.681230000000000     -0.260300000000000      0.768520000000000
H       1.196490000000000      2.520610000000000      0.884290000000000
H       0.676920000000000      2.331040000000000      2.573220000000000
H       2.314940000000000      2.955740000000000      2.220890000000000
C      -2.955910000000000      0.744400000000000     -0.103610000000000
C      -2.439850000000000     -1.548950000000000     -0.304500000000000
O      -2.020770000000000     -0.220450000000000     -0.544040000000000
C      -2.222700000000000      1.963660000000000      0.460350000000000
C      -3.477440000000000     -1.985360000000000     -1.318930000000000
H      -3.559100000000000      1.070230000000000     -0.974540000000000
H      -3.637990000000000      0.366640000000000      0.688120000000000
H      -1.554260000000000     -2.209130000000000     -0.392040000000000
H      -2.810950000000000     -1.712700000000000      0.721780000000000
H      -3.075690000000000     -1.859080000000000     -2.345280000000000
H      -3.728390000000000     -3.052080000000000     -1.146250000000000
H      -4.392720000000000     -1.371600000000000     -1.197840000000000
H      -1.609810000000000      1.692210000000000      1.338570000000000
H      -1.548380000000000      2.410350000000000     -0.297370000000000
H      -2.958160000000000      2.731170000000000      0.777530000000000
Na      5.129290000000000     -1.816920000000000      7.733320000000000
C       8.212260000000001     -1.202370000000000      8.574719999999999
C       6.788170000000000     -0.680290000000000     10.309089999999999
O       7.035700000000000     -0.507900000000000      8.930030000000000
C       8.477860000000000     -1.007700000000000      7.088410000000000
C       5.511240000000000      0.058850000000000     10.683640000000000
H       9.090800000000000     -0.803390000000000      9.131349999999999
H       8.096790000000000     -2.294810000000000      8.758749999999999
H       6.640330000000000     -1.756860000000000     10.554060000000000
H       7.619170000000000     -0.252060000000000     10.914849999999999
H       4.651350000000000     -0.346830000000000     10.109159999999999
H       5.308980000000000     -0.067530000000000     11.768430000000000
H       5.618600000000000      1.142270000000000     10.462560000000000
H       8.610680000000000      0.071490000000000      6.861450000000000
H       9.401859999999999     -1.551390000000000      6.797830000000000
H       7.627380000000000     -1.402260000000000      6.492770000000000
Na      7.722140000000000      2.027740000000000      8.727150000000000
Mg      0.392280000000000     -1.771840000000000      9.670570000000000
H      -1.896430000000000     -0.342710000000000     11.298080000000001
C      -3.065100000000000     -1.942060000000000     10.360580000000001
C      -1.934020000000000     -0.927260000000000     10.356629999999999
C      -2.961830000000000     -2.948280000000000     11.515250000000000
H      -4.021120000000000     -1.385680000000000     10.452040000000000
H      -3.069990000000000     -2.489480000000000      9.394040000000000
H      -2.966720000000000     -2.413260000000000     12.489820000000000
H      -3.858850000000000     -3.601200000000000     11.470610000000001
C      -1.723750000000000     -3.843920000000000     11.433750000000000
H      -2.029570000000000     -0.243350000000000      9.485760000000001
H      -0.795740000000000     -3.251710000000000     11.564850000000000
H      -1.769380000000000     -4.603080000000000     12.244330000000000
H      -1.688090000000000     -4.375360000000000     10.458740000000001
C       2.254260000000000     -2.423550000000000     12.162100000000001
C       3.368040000000000     -3.237180000000000     12.290550000000000
C       3.589640000000000     -3.818240000000000     11.051170000000001
C       2.590350000000000     -3.350800000000000     10.226430000000001
N       1.803310000000000     -2.501310000000000     10.899620000000001
C       2.356930000000000     -3.688040000000000      8.765870000000000
N       1.039470000000000     -3.169960000000000      8.339700000000001
C       0.539880000000000     -3.401500000000000      6.972660000000000
H       3.956150000000000     -3.389080000000000     13.185449999999999
H       1.809250000000000     -1.815620000000000     12.939040000000000
H       4.377010000000000     -4.510500000000000     10.786820000000001
H       3.175870000000000     -3.231870000000000      8.174659999999999
H       2.372720000000000     -4.788320000000000      8.655419999999999
C       0.314220000000000     -4.910400000000000      6.751840000000000
C      -0.810850000000000     -2.680020000000000      6.813490000000000
C       1.524680000000000     -2.852640000000000      5.926150000000000
H      -0.401980000000000     -5.305190000000000      7.505880000000000
H      -0.099680000000000     -5.103870000000000      5.739320000000000
H       1.261810000000000     -5.479250000000000      6.839410000000000
H      -0.693870000000000     -1.584710000000000      6.957980000000000
H      -1.230990000000000     -2.853200000000000      5.797410000000000
H      -1.544450000000000     -3.054940000000000      7.558300000000000
H       1.685660000000000     -1.763600000000000      6.077510000000000
H       2.503210000000000     -3.371280000000000      5.987230000000000
H       1.125790000000000     -3.016350000000000      4.903270000000000

-C 0
6-31g(d,p)
****
-H 0
6-31g(d,p)
****
-Mg 0
6-31g(d,p)
****
-N 0
6-31+g(d,p)
****
-Na 0
6-31g(d,p)
****
-O 0
6-31+g(d,p)
****


