%chk=lowest10_c1_a2_speciation7_speciationDFT0_speciationDFT38_rank10_E220.47.chk
%nprocshared=20
%mem=40GB
#p opt=loose PM7/gen scf=xqc 

lowest10_c1_a2_speciation7_speciationDFT0_speciationDFT38_rank10_E220.47 DFT input

0 1
Mg      0.834320000000000     -0.513870000000000     -0.134980000000000
C      -0.626660000000000      2.344830000000000     -0.858980000000000
C      -1.542860000000000      0.587920000000000     -2.201780000000000
O      -0.501300000000000      1.023820000000000     -1.355480000000000
C      -1.987880000000000      2.692800000000000     -0.252360000000000
C      -1.554010000000000      1.323210000000000     -3.532750000000000
H       0.108050000000000      2.428850000000000     -0.034380000000000
H      -0.321860000000000      3.085210000000000     -1.625810000000000
H      -1.352450000000000     -0.481240000000000     -2.415270000000000
H      -2.529260000000000      0.600570000000000     -1.697770000000000
H      -2.307420000000000      0.854470000000000     -4.198960000000000
H      -0.554930000000000      1.259120000000000     -4.011440000000000
H      -1.820660000000000      2.386980000000000     -3.378990000000000
H      -2.285120000000000      1.940680000000000      0.496820000000000
H      -2.764550000000000      2.761880000000000     -1.040220000000000
H      -1.922510000000000      3.672800000000000      0.261090000000000
H       2.587480000000000     -0.543290000000000     -2.141790000000000
C       1.992100000000000     -2.648690000000000     -1.982090000000000
C       2.382340000000000     -1.298520000000000     -1.356640000000000
C       0.692530000000000     -2.641370000000000     -2.811490000000000
H       2.830010000000000     -2.989640000000000     -2.624910000000000
H       1.853580000000000     -3.386390000000000     -1.162690000000000
H       0.526440000000000     -3.668170000000000     -3.209000000000000
H      -0.168560000000000     -2.398030000000000     -2.157140000000000
C       0.725330000000000     -1.680130000000000     -3.999790000000000
H       3.278570000000000     -1.418050000000000     -0.718440000000000
H       0.841150000000000     -0.635820000000000     -3.651780000000000
H       1.561060000000000     -1.933060000000000     -4.684450000000000
H      -0.230220000000000     -1.750470000000000     -4.564730000000000
C      -2.958520000000000     -1.501260000000000      0.217290000000000
C      -1.942300000000000     -2.429150000000000      0.238470000000000
C      -0.953510000000000     -1.939870000000000      1.073950000000000
C      -1.342680000000000     -0.742450000000000      1.525260000000000
N      -2.625330000000000     -0.417290000000000      1.040810000000000
C      -0.528200000000000      0.179370000000000      2.393970000000000
N       0.715670000000000      0.519490000000000      1.691980000000000
C       1.756890000000000      1.295250000000000      2.408310000000000
H      -1.923510000000000     -3.354890000000000     -0.320700000000000
H      -3.872540000000000     -1.574090000000000     -0.354850000000000
H      -0.003480000000000     -2.417770000000000      1.279910000000000
H      -0.325290000000000     -0.324070000000000      3.357300000000000
H      -1.117520000000000      1.103710000000000      2.570580000000000
C       2.358020000000000      0.465510000000000      3.559700000000000
C       2.877530000000000      1.649580000000000      1.417090000000000
C       1.172860000000000      2.611680000000000      2.975870000000000
H       2.810030000000000     -0.469890000000000      3.169190000000000
H       3.144230000000000      1.046670000000000      4.089940000000000
H       1.590370000000000      0.201330000000000      4.314660000000000
H       2.489370000000000      2.281480000000000      0.590620000000000
H       3.691000000000000      2.212190000000000      1.928530000000000
H       3.313870000000000      0.727280000000000      0.979820000000000
H       0.734300000000000      3.231290000000000      2.164830000000000
H       0.384200000000000      2.414400000000000      3.731490000000000
H       1.964300000000000      3.212250000000000      3.476070000000000
Na     -2.867570000000000     -6.323710000000000      4.016020000000000
C      -1.374950000000000     -5.116930000000000      6.564970000000000
C      -0.651810000000000     -7.343570000000000      6.405110000000000
O      -1.724030000000000     -6.441040000000000      6.209490000000000
C      -0.780480000000000     -4.372520000000000      5.373150000000000
C      -0.679070000000000     -7.936810000000000      7.811450000000000
H      -2.303330000000000     -4.592110000000000      6.875240000000000
H      -0.689420000000000     -5.073610000000000      7.441040000000000
H      -0.768340000000000     -8.171379999999999      5.673250000000000
H       0.339230000000000     -6.882880000000000      6.196740000000000
H      -1.633400000000000     -8.474840000000000      7.988620000000000
H       0.157660000000000     -8.657280000000000      7.922710000000000
H      -0.564780000000000     -7.140260000000000      8.575250000000000
H      -1.503450000000000     -4.356600000000000      4.530850000000000
H      -0.550320000000000     -3.327130000000000      5.666330000000000
H       0.156760000000000     -4.860030000000000      5.036010000000000
C       0.000810000000000     -6.965260000000000      2.386010000000000
C      -1.869920000000000     -7.018460000000000      0.909920000000000
O      -1.408910000000000     -6.968500000000000      2.248660000000000
C       0.677110000000000     -5.739400000000000      1.770640000000000
C      -1.480530000000000     -8.302560000000000      0.178040000000000
H       0.209010000000000     -6.931490000000000      3.476010000000000
H       0.452070000000000     -7.913390000000000      2.028250000000000
H      -2.979880000000000     -7.002140000000000      0.959550000000000
H      -1.586510000000000     -6.110380000000000      0.338570000000000
H      -1.801270000000000     -9.185910000000000      0.768460000000000
H      -1.983200000000000     -8.327700000000000     -0.811300000000000
H      -0.386770000000000     -8.345219999999999      0.001800000000000
H       0.221740000000000     -4.810790000000000      2.173540000000000
H       1.757080000000000     -5.751910000000000      2.027570000000000
H       0.594470000000000     -5.748930000000000      0.665030000000000
Na     -3.623170000000000     -7.414590000000000      7.290300000000000
C      -5.742020000000000     -6.849780000000000      4.790870000000000
C      -4.751520000000000     -8.966379999999999      4.646440000000000
O      -4.603110000000000     -7.631610000000000      5.086720000000000
C      -5.672940000000000     -5.560450000000000      5.600210000000000
C      -4.493390000000000     -9.105380000000000      3.147430000000000
H      -5.749540000000000     -6.578140000000000      3.713600000000000
H      -6.689280000000000     -7.364500000000000      5.068310000000000
H      -3.987810000000000     -9.573720000000000      5.178200000000000
H      -5.737260000000000     -9.396789999999999      4.930170000000000
H      -3.481670000000000     -8.724830000000001      2.897410000000000
H      -4.551870000000000    -10.176460000000001      2.861080000000000
H      -5.251520000000000     -8.545800000000000      2.562420000000000
H      -4.739110000000000     -5.006830000000000      5.363440000000000
H      -6.543470000000000     -4.914910000000000      5.358760000000000
H      -5.689140000000000     -5.788800000000000      6.686370000000000
C      -6.154110000000000     -7.890360000000000      9.376170000000000
C      -4.937240000000000     -6.040000000000000     10.052800000000000
O      -5.106460000000000     -7.010320000000000      9.048380000000000
C      -6.265280000000000     -8.928459999999999      8.267400000000000
C      -3.813720000000000     -5.105940000000000      9.623310000000000
H      -5.941820000000000     -8.425400000000000     10.329250000000000
H      -7.122120000000000     -7.344160000000000      9.436120000000001
H      -5.861740000000000     -5.432340000000000     10.177180000000000
H      -4.643740000000000     -6.515040000000000     11.015950000000000
H      -4.077820000000000     -4.615210000000000      8.662110000000000
H      -3.649710000000000     -4.324080000000000     10.393580000000000
H      -2.872090000000000     -5.680480000000000      9.485329999999999
H      -5.313160000000000     -9.494830000000000      8.177250000000001
H      -7.089170000000000     -9.638489999999999      8.487080000000001
H      -6.473870000000000     -8.425829999999999      7.300340000000000
Mg     -1.901270000000000    -12.800860000000000      4.258970000000000
H      -4.575740000000000    -13.903460000000001      5.516170000000000
C      -3.901760000000000    -15.707350000000000      4.469980000000000
C      -4.032640000000000    -14.198350000000000      4.595550000000000
C      -3.162690000000000    -16.344180000000001      5.655150000000000
H      -4.924640000000000    -16.134340000000002      4.411900000000000
H      -3.366720000000000    -15.952050000000000      3.527770000000000
H      -3.694590000000000    -16.115649999999999      6.604300000000000
H      -3.174170000000000    -17.444269999999999      5.504390000000000
C      -1.702790000000000    -15.900630000000000      5.771400000000000
H      -4.540870000000000    -13.777320000000000      3.701290000000000
H      -1.633830000000000    -14.820679999999999      6.012460000000000
H      -1.212510000000000    -16.471789999999999      6.589220000000000
H      -1.155250000000000    -16.103719999999999      4.826250000000000
C      -0.537060000000000    -11.964700000000001      7.003170000000000
C       0.762170000000000    -11.592400000000000      7.312260000000000
C       1.487240000000000    -11.652860000000000      6.132370000000000
C       0.610250000000000    -12.077710000000000      5.161080000000000
N      -0.611380000000000    -12.247280000000000      5.696680000000000
C       0.891940000000000    -12.326639999999999      3.693640000000000
N      -0.258740000000000    -13.016730000000001      3.074030000000000
C      -0.227580000000000    -13.425420000000001      1.658820000000000
H       1.138180000000000    -11.305990000000000      8.283870000000000
H      -1.369620000000000    -12.019590000000001      7.695010000000000
H       2.537880000000000    -11.426550000000001      6.000350000000000
H       1.078850000000000    -11.344820000000000      3.210290000000000
H       1.789920000000000    -12.968740000000000      3.615780000000000
C       0.861060000000000    -14.497159999999999      1.451550000000000
C      -1.590390000000000    -14.041890000000000      1.295820000000000
C       0.033830000000000    -12.217200000000000      0.742590000000000
H       0.667220000000000    -15.372540000000001      2.110070000000000
H       0.874890000000000    -14.847270000000000      0.397440000000000
H       1.869800000000000    -14.101170000000000      1.685350000000000
H      -2.406850000000000    -13.299540000000000      1.425020000000000
H      -1.595920000000000    -14.384990000000000      0.237140000000000
H      -1.808710000000000    -14.917930000000000      1.942560000000000
H      -0.750800000000000    -11.445880000000001      0.890340000000000
H       1.024490000000000    -11.764210000000000      0.952420000000000
H       0.027210000000000    -12.530080000000000     -0.323920000000000

-C 0
6-31g(d,p)
****
-H 0
6-31g(d,p)
****
-Mg 0
6-31g(d,p)
****
-N 0
6-31+g(d,p)
****
-Na 0
6-31g(d,p)
****
-O 0
6-31+g(d,p)
****


