%chk=lowest10_c1_a2_speciation0_speciationDFT0_speciationDFT37b_rank01_E164.10.chk
%nprocshared=20
%mem=40GB
#p opt=loose PM7/gen scf=xqc 

lowest10_c1_a2_speciation0_speciationDFT0_speciationDFT37b_rank01_E164.10 DFT input

0 1
Mg     -0.154300000000000     -0.422240000000000      0.356710000000000
C      -0.420770000000000      1.756060000000000      2.665890000000000
C      -2.440240000000000      0.512630000000000      2.414590000000000
O      -1.350720000000000      1.153920000000000      1.787000000000000
C       0.235360000000000      0.784650000000000      3.646750000000000
C      -3.411480000000000      1.513170000000000      3.018860000000000
H       0.389260000000000      2.145900000000000      2.023440000000000
H      -0.842360000000000      2.649150000000000      3.168140000000000
H      -2.979160000000000     -0.040340000000000      1.614290000000000
H      -2.127190000000000     -0.262220000000000      3.144350000000000
H      -3.675840000000000      2.278350000000000      2.258790000000000
H      -4.331860000000000      0.985250000000000      3.343090000000000
H      -2.952210000000000      2.003720000000000      3.900320000000000
H       0.566050000000000     -0.133910000000000      3.122540000000000
H       1.120920000000000      1.271990000000000      4.105710000000000
H      -0.470050000000000      0.514140000000000      4.457050000000000
H       0.645150000000000     -2.642930000000000      1.434550000000000
C      -1.165120000000000     -3.131080000000000      0.319650000000000
C      -0.381970000000000     -2.257710000000000      1.278100000000000
C      -0.510000000000000     -3.137890000000000     -1.066160000000000
H      -1.194520000000000     -4.151490000000000      0.746320000000000
H      -2.202400000000000     -2.739290000000000      0.222910000000000
H      -0.590790000000000     -2.128660000000000     -1.520890000000000
H       0.566700000000000     -3.396800000000000     -0.985730000000000
C      -1.181880000000000     -4.158880000000000     -1.975960000000000
H      -0.903980000000000     -2.152650000000000      2.250100000000000
H      -1.053980000000000     -5.175250000000000     -1.545620000000000
H      -2.265220000000000     -3.939720000000000     -2.082750000000000
H      -0.708100000000000     -4.137780000000000     -2.979790000000000
C      -0.937850000000000     -0.082750000000000     -3.347050000000000
C      -1.876440000000000      0.202880000000000     -2.373910000000000
C      -1.262540000000000      1.045850000000000     -1.468310000000000
C      -0.012630000000000      1.210490000000000     -1.893820000000000
N       0.173790000000000      0.509360000000000     -3.095080000000000
C       1.076620000000000      2.007500000000000     -1.218730000000000
N       1.533100000000000      1.355120000000000      0.021170000000000
C       2.811770000000000      0.603410000000000     -0.014860000000000
H      -2.886400000000000     -0.186620000000000     -2.314920000000000
H      -1.084050000000000     -0.721620000000000     -4.203180000000000
H      -1.711120000000000      1.464990000000000     -0.582930000000000
H       0.677610000000000      3.013390000000000     -0.967970000000000
H       1.904480000000000      2.151900000000000     -1.931100000000000
C       3.989520000000000      1.546990000000000     -0.326130000000000
C       3.041010000000000      0.004890000000000      1.388060000000000
C       2.771550000000000     -0.557350000000000     -1.031720000000000
H       3.984450000000000      2.406950000000000      0.376790000000000
H       4.955710000000000      1.008230000000000     -0.219490000000000
H       3.953790000000000      1.931630000000000     -1.363100000000000
H       2.241100000000000     -0.720810000000000      1.641060000000000
H       4.011470000000000     -0.536230000000000      1.443450000000000
H       3.041580000000000      0.803280000000000      2.161050000000000
H       2.001290000000000     -1.306270000000000     -0.749950000000000
H       2.550030000000000     -0.191710000000000     -2.052710000000000
H       3.754750000000000     -1.076130000000000     -1.067790000000000
Na      1.590980000000000     -3.650450000000000     11.971060000000000
C       4.015910000000000     -3.885290000000000     14.128940000000000
C       4.313540000000000     -5.401410000000000     12.419729999999999
O       3.396670000000000     -4.901530000000000     13.369590000000001
C       3.025050000000000     -3.354550000000000     15.155590000000000
C       3.636300000000000     -6.486770000000000     11.594830000000000
H       4.896090000000000     -4.285220000000000     14.682290000000000
H       4.318250000000000     -3.034080000000000     13.477280000000000
H       4.637920000000000     -4.597480000000000     11.720200000000000
H       5.194530000000000     -5.858510000000000     12.925500000000000
H       2.755840000000000     -6.069180000000000     11.061529999999999
H       4.350790000000000     -6.889720000000000     10.845990000000000
H       3.303010000000000     -7.315780000000000     12.255050000000001
H       2.704170000000000     -4.171840000000000     15.835950000000000
H       3.502280000000000     -2.552950000000000     15.758480000000000
H       2.132220000000000     -2.935530000000000     14.644679999999999
Na      3.124390000000000     -6.884110000000000     15.084130000000000
Mg      0.073620000000000     -5.553310000000000      7.469180000000000
H      -0.445670000000000     -8.005070000000000      5.556780000000000
C      -1.532540000000000     -6.452220000000000      4.457190000000000
C      -1.048210000000000     -7.093810000000000      5.746680000000000
C      -0.384220000000000     -6.049630000000000      3.521850000000000
H      -2.181820000000000     -7.185750000000000      3.935280000000000
H      -2.142180000000000     -5.555790000000000      4.699360000000000
H       0.228340000000000     -6.940480000000000      3.262970000000000
H      -0.837840000000000     -5.656180000000000      2.589570000000000
C       0.521010000000000     -4.960360000000000      4.101030000000000
H      -1.909190000000000     -7.336200000000000      6.406350000000000
H       1.071200000000000     -5.333150000000000      4.988550000000000
H       1.264390000000000     -4.657380000000000      3.332280000000000
H      -0.073570000000000     -4.065350000000000      4.383520000000000
C       3.247000000000000     -5.659930000000000      7.338040000000000
C       4.215810000000000     -4.762660000000000      7.756750000000000
C       3.550880000000000     -3.669260000000000      8.290699999999999
C       2.206580000000000     -3.937030000000000      8.155780000000000
N       2.035280000000000     -5.142370000000000      7.597100000000000
C       1.038660000000000     -3.059410000000000      8.564439999999999
N      -0.216110000000000     -3.612510000000000      8.012350000000000
C      -1.503600000000000     -2.926430000000000      8.220879999999999
H       5.287400000000000     -4.890240000000000      7.684810000000000
H       3.419700000000000     -6.624830000000000      6.879350000000000
H       3.994700000000000     -2.778620000000000      8.713559999999999
H       1.007520000000000     -3.025610000000000      9.671820000000000
H       1.204380000000000     -2.045450000000000      8.155320000000000
C      -1.483900000000000     -1.559320000000000      7.508570000000000
C      -2.621670000000000     -3.781880000000000      7.598610000000000
C      -1.792890000000000     -2.741860000000000      9.721209999999999
H      -1.280310000000000     -1.695010000000000      6.423250000000000
H      -2.460280000000000     -1.041760000000000      7.620720000000000
H      -0.703030000000000     -0.894400000000000      7.929510000000000
H      -2.676440000000000     -4.777670000000000      8.088270000000000
H      -3.608940000000000     -3.281710000000000      7.715900000000000
H      -2.439940000000000     -3.935060000000000      6.513850000000000
H      -1.808320000000000     -3.726220000000000     10.236200000000000
H      -1.024360000000000     -2.100700000000000     10.199759999999999
H      -2.778510000000000     -2.249540000000000      9.868499999999999

-C 0
6-31g(d,p)
****
-H 0
6-31g(d,p)
****
-Mg 0
6-31g(d,p)
****
-N 0
6-31+g(d,p)
****
-Na 0
6-31g(d,p)
****
-O 0
6-31+g(d,p)
****


