%chk=lowest10_c1_a2_speciation7_speciationDFT1_speciationDFT96_rank03_E229.32.chk
%nprocshared=20
%mem=40GB
#p opt=loose PM7/gen scf=xqc 

lowest10_c1_a2_speciation7_speciationDFT1_speciationDFT96_rank03_E229.32 DFT input

0 1
Mg     -0.149880000000000      0.452990000000000     -0.009400000000000
C      -2.418770000000000     -1.884020000000000      1.265970000000000
C      -1.641970000000000     -2.388670000000000     -0.933730000000000
O      -1.452000000000000     -1.650380000000000      0.258480000000000
C      -2.384510000000000     -3.300610000000000      1.830010000000000
C      -2.933600000000000     -2.041050000000000     -1.668460000000000
H      -2.172080000000000     -1.191510000000000      2.099680000000000
H      -3.440220000000000     -1.609410000000000      0.940810000000000
H      -0.813010000000000     -2.106090000000000     -1.612630000000000
H      -1.525250000000000     -3.479260000000000     -0.771480000000000
H      -3.008470000000000     -0.943520000000000     -1.813580000000000
H      -2.930440000000000     -2.534590000000000     -2.662610000000000
H      -3.814900000000000     -2.405160000000000     -1.106280000000000
H      -1.362270000000000     -3.559410000000000      2.171990000000000
H      -3.077600000000000     -3.360190000000000      2.695330000000000
H      -2.718790000000000     -4.031710000000000      1.068330000000000
H      -2.127620000000000      1.658480000000000      1.839070000000000
C      -3.372130000000000      1.560010000000000      0.032600000000000
C      -2.061580000000000      1.819180000000000      0.743220000000000
C      -4.414680000000000      2.550680000000000      0.520790000000000
H      -3.228200000000000      1.668170000000000     -1.062170000000000
H      -3.702790000000000      0.524020000000000      0.241010000000000
H      -4.543220000000000      2.432860000000000      1.618870000000000
H      -4.063780000000000      3.583220000000000      0.304090000000000
C      -5.747900000000000      2.314900000000000     -0.170580000000000
H      -1.637030000000000      2.812810000000000      0.490500000000000
H      -5.636290000000000      2.439110000000000     -1.269000000000000
H      -6.116360000000000      1.289580000000000      0.047520000000000
H      -6.484830000000000      3.053040000000000      0.205160000000000
C       4.649350000000000      0.167090000000000      0.982620000000000
C       4.866210000000000      1.053990000000000     -0.042500000000000
C       3.948160000000000      0.767210000000000     -1.045430000000000
C       3.181040000000000     -0.251250000000000     -0.637890000000000
N       3.597310000000000     -0.684660000000000      0.635730000000000
C       2.066230000000000     -0.955290000000000     -1.382740000000000
N       0.843320000000000     -0.170300000000000     -1.634180000000000
C       0.679170000000000      0.799420000000000     -2.725050000000000
H       5.624740000000000      1.824550000000000     -0.046860000000000
H       5.193970000000000      0.116850000000000      1.916540000000000
H       3.895450000000000      1.283910000000000     -1.988850000000000
H       1.745300000000000     -1.795800000000000     -0.730050000000000
H       2.444460000000000     -1.418570000000000     -2.310430000000000
C       1.546770000000000      0.429380000000000     -3.930370000000000
C      -0.800530000000000      0.755740000000000     -3.154930000000000
C       0.971460000000000      2.228300000000000     -2.222780000000000
H       1.298370000000000     -0.604220000000000     -4.257390000000000
H       1.363490000000000      1.127110000000000     -4.771200000000000
H       2.619900000000000      0.471440000000000     -3.668230000000000
H      -1.460200000000000      1.002370000000000     -2.298850000000000
H      -1.005500000000000      1.487650000000000     -3.965630000000000
H      -1.080930000000000     -0.257870000000000     -3.512380000000000
H       0.263480000000000      2.520020000000000     -1.415230000000000
H       1.985560000000000      2.330070000000000     -1.812050000000000
H       0.860360000000000      2.959310000000000     -3.051680000000000
C       1.485310000000000      0.742130000000000      2.676900000000000
C       1.046100000000000     -1.551960000000000      2.336510000000000
O       0.634290000000000     -0.222200000000000      2.088950000000000
C       1.606450000000000      1.961320000000000      1.759470000000000
C       0.684320000000000     -1.985880000000000      3.741350000000000
H       1.034370000000000      1.069040000000000      3.635260000000000
H       2.512330000000000      0.363750000000000      2.869080000000000
H       0.530070000000000     -2.211630000000000      1.610930000000000
H       2.119950000000000     -1.721220000000000      2.155710000000000
H      -0.405120000000000     -1.858940000000000      3.905410000000000
H       0.960100000000000     -3.052590000000000      3.872080000000000
H       1.248560000000000     -1.372140000000000      4.472240000000000
H       2.060320000000000      1.689150000000000      0.789430000000000
H       0.612840000000000      2.408200000000000      1.555280000000000
H       2.248930000000000      2.729430000000000      2.236990000000000
Na    -13.391019999999999     -8.534020000000000     -1.861260000000000
C     -14.146160000000000     -5.574040000000000     -2.788190000000000
C     -13.436340000000000     -5.376880000000000     -0.560970000000000
O     -14.100590000000000     -6.185360000000000     -1.513480000000000
C     -12.915430000000001     -5.941540000000000     -3.611050000000000
C     -14.414980000000000     -4.446830000000000      0.151660000000000
H     -15.045150000000000     -5.956180000000000     -3.316720000000000
H     -14.268789999999999     -4.469100000000000     -2.730800000000000
H     -12.979600000000000     -6.051390000000000      0.194380000000000
H     -12.597950000000001     -4.794030000000000     -1.002860000000000
H     -15.203390000000001     -5.033720000000000      0.667210000000000
H     -13.867920000000000     -3.847750000000000      0.909550000000000
H     -14.893820000000000     -3.753930000000000     -0.570430000000000
H     -12.845720000000000     -7.043540000000000     -3.725470000000000
H     -12.992400000000000     -5.481410000000000     -4.617980000000000
H     -11.992390000000000     -5.569840000000000     -3.121510000000000
C     -10.177840000000000     -7.746580000000000     -1.263390000000000
C     -10.485790000000000    -10.106629999999999     -1.404100000000000
O     -11.090809999999999     -8.828260000000000     -1.319200000000000
C      -9.309930000000000     -7.607320000000000     -2.514370000000000
C      -9.647489999999999    -10.467860000000000     -0.178230000000000
H     -10.790390000000000     -6.823180000000000     -1.195320000000000
H      -9.569550000000000     -7.767620000000000     -0.336030000000000
H     -11.315560000000000    -10.844070000000000     -1.454140000000000
H      -9.918570000000001    -10.236230000000001     -2.348980000000000
H     -10.252730000000000    -10.347610000000000      0.744810000000000
H      -9.317500000000001    -11.524710000000001     -0.258760000000000
H      -8.739599999999999     -9.834569999999999     -0.116840000000000
H      -9.949500000000000     -7.560580000000000     -3.420690000000000
H      -8.718159999999999     -6.671720000000000     -2.444570000000000
H      -8.595770000000000     -8.450790000000000     -2.601120000000000
Na    -16.177579999999999     -6.830320000000000     -0.517150000000000
C     -15.970829999999999    -10.036809999999999     -1.375350000000000
C     -15.085690000000000     -9.634760000000000      0.753940000000000
O     -15.334669999999999     -9.100460000000000     -0.530380000000000
C     -16.532080000000001     -9.299790000000000     -2.585040000000000
C     -13.850360000000000    -10.532950000000000      0.769100000000000
H     -15.234130000000000    -10.783980000000000     -1.740530000000000
H     -16.823670000000000    -10.545750000000000     -0.872490000000000
H     -14.888280000000000     -8.777350000000000      1.432560000000000
H     -15.973549999999999    -10.158350000000000      1.172270000000000
H     -12.965669999999999     -9.971340000000000      0.404680000000000
H     -13.653940000000000    -10.871930000000001      1.807810000000000
H     -14.004750000000000    -11.428550000000000      0.133490000000000
H     -15.718360000000001     -8.767840000000000     -3.123090000000000
H     -17.009390000000000    -10.022119999999999     -3.280130000000000
H     -17.293240000000001     -8.558970000000000     -2.262650000000000
C     -19.427180000000000     -7.155360000000000      0.049380000000000
C     -19.094670000000001     -5.662940000000000     -1.689710000000000
O     -18.480280000000000     -6.580200000000000     -0.817830000000000
C     -18.696059999999999     -8.112299999999999      0.981590000000000
C     -18.024500000000000     -5.102440000000000     -2.616950000000000
H     -19.921199999999999     -6.376590000000000      0.673210000000000
H     -20.181039999999999     -7.740260000000000     -0.523800000000000
H     -19.864540000000002     -6.166340000000000     -2.316860000000000
H     -19.539800000000000     -4.815070000000000     -1.121890000000000
H     -17.560240000000000     -5.927070000000000     -3.199130000000000
H     -18.472529999999999     -4.371860000000000     -3.321960000000000
H     -17.234059999999999     -4.593840000000000     -2.023370000000000
H     -17.931799999999999     -7.561660000000000      1.571610000000000
H     -19.413399999999999     -8.593270000000000      1.678210000000000
H     -18.188379999999999     -8.901249999999999      0.388990000000000
Mg     -8.552220000000000     -2.686130000000000      3.911430000000000
H      -5.942860000000000     -4.087510000000000      3.045160000000000
C      -7.021740000000000     -4.016780000000000      1.144800000000000
C      -6.970310000000000     -4.218960000000000      2.647660000000000
C      -6.158660000000000     -5.069890000000000      0.456630000000000
H      -8.076290000000000     -4.102960000000000      0.802570000000000
H      -6.652350000000000     -2.995480000000000      0.905150000000000
H      -5.111330000000000     -4.979400000000000      0.817720000000000
H      -6.541840000000000     -6.082350000000000      0.711580000000000
C      -6.179610000000000     -4.897640000000000     -1.054530000000000
H      -7.390620000000000     -5.203960000000000      2.940550000000000
H      -7.216420000000000     -4.999530000000000     -1.437270000000000
H      -5.784070000000000     -3.898680000000000     -1.332940000000000
H      -5.543820000000000     -5.679950000000000     -1.518420000000000
C      -7.713810000000000     -2.173210000000000      6.924530000000000
C      -8.165229999999999     -1.262670000000000      7.867310000000000
C      -9.142530000000001     -0.498140000000000      7.248610000000000
C      -9.236840000000001     -0.960690000000000      5.956120000000000
N      -8.375920000000001     -1.978570000000000      5.777750000000000
C     -10.149920000000000     -0.464550000000000      4.851770000000000
N      -9.804560000000000     -1.122240000000000      3.573880000000000
C     -10.524730000000000     -0.804620000000000      2.328480000000000
H      -7.825120000000000     -1.168520000000000      8.888470000000000
H      -6.952040000000000     -2.929550000000000      7.077230000000000
H      -9.713460000000000      0.309790000000000      7.688660000000000
H     -10.012700000000001      0.629450000000000      4.752550000000000
H     -11.194559999999999     -0.695710000000000      5.145900000000000
C     -10.269150000000000      0.664400000000000      1.940650000000000
C      -9.987590000000001     -1.706380000000000      1.202250000000000
C     -12.033700000000000     -1.060600000000000      2.490500000000000
H      -9.178480000000000      0.843500000000000      1.814730000000000
H     -10.778810000000000      0.914380000000000      0.985900000000000
H     -10.649979999999999      1.358340000000000      2.716930000000000
H     -10.160380000000000     -2.777860000000000      1.439560000000000
H     -10.498650000000000     -1.478430000000000      0.240200000000000
H      -8.897000000000000     -1.549300000000000      1.058320000000000
H     -12.216659999999999     -2.119820000000000      2.772780000000000
H     -12.467990000000000     -0.403210000000000      3.271210000000000
H     -12.568460000000000     -0.850720000000000      1.539230000000000

-C 0
6-31g(d,p)
****
-H 0
6-31g(d,p)
****
-Mg 0
6-31g(d,p)
****
-N 0
6-31+g(d,p)
****
-Na 0
6-31g(d,p)
****
-O 0
6-31+g(d,p)
****


