%chk=lowest10_c1_a2_speciation0_speciationDFT1_speciationDFT2_rank01_E180.35.chk
%nprocshared=20
%mem=40GB
#p opt=loose PM7/gen scf=xqc 

lowest10_c1_a2_speciation0_speciationDFT1_speciationDFT2_rank01_E180.35 DFT input

0 1
Mg     -0.836710000000000     -0.334550000000000      0.170920000000000
H      -0.946230000000000     -2.947140000000000     -1.327010000000000
C      -2.387950000000000     -1.738670000000000     -2.474000000000000
C      -1.774900000000000     -2.227280000000000     -1.169260000000000
C      -1.420200000000000     -0.917780000000000     -3.344340000000000
H      -2.761030000000000     -2.618660000000000     -3.036570000000000
H      -3.250870000000000     -1.083430000000000     -2.225620000000000
H      -1.962760000000000     -0.630900000000000     -4.271530000000000
H      -1.125410000000000      0.015290000000000     -2.818560000000000
C      -0.154820000000000     -1.676940000000000     -3.738680000000000
H      -2.539760000000000     -2.662340000000000     -0.493850000000000
H       0.466400000000000     -1.891540000000000     -2.844270000000000
H      -0.415990000000000     -2.626860000000000     -4.249300000000000
H       0.450280000000000     -1.052100000000000     -4.429860000000000
C      -1.104000000000000      2.506450000000000     -1.226250000000000
C      -0.448340000000000      3.704620000000000     -0.992050000000000
C       0.449950000000000      3.476200000000000      0.038780000000000
C       0.317000000000000      2.150390000000000      0.378580000000000
N      -0.626360000000000      1.578080000000000     -0.384320000000000
C       1.065020000000000      1.389710000000000      1.455330000000000
N       0.815900000000000     -0.059610000000000      1.317200000000000
C       1.462530000000000     -1.023990000000000      2.225990000000000
H      -0.609390000000000      4.640720000000000     -1.507640000000000
H      -1.881620000000000      2.334100000000000     -1.960970000000000
H       1.129380000000000      4.189470000000000      0.485230000000000
H       0.704280000000000      1.761470000000000      2.436680000000000
H       2.145580000000000      1.589930000000000      1.339320000000000
C       1.149410000000000     -0.696040000000000      3.697460000000000
C       0.936710000000000     -2.436290000000000      1.908870000000000
C       2.985190000000000     -1.005560000000000      1.990080000000000
H       0.052090000000000     -0.704050000000000      3.871700000000000
H       1.619950000000000     -1.445240000000000      4.370470000000000
H       1.549470000000000      0.299940000000000      3.977820000000000
H       1.137150000000000     -2.704560000000000      0.849260000000000
H       1.433570000000000     -3.192680000000000      2.557470000000000
H      -0.158410000000000     -2.497350000000000      2.082160000000000
H       3.210600000000000     -1.256250000000000      0.930050000000000
H       3.416270000000000     -0.008410000000000      2.210610000000000
H       3.496910000000000     -1.741800000000000      2.644780000000000
Na     -0.462990000000000     -5.832250000000000      6.752690000000000
C      -2.995270000000000     -4.944270000000000      4.869000000000000
C      -2.834290000000000     -7.240120000000000      4.964720000000000
O      -2.123500000000000     -6.044700000000000      4.723320000000000
C      -2.227730000000000     -3.659130000000000      4.593630000000000
C      -1.885460000000000     -8.421690000000000      4.821920000000000
H      -3.830860000000000     -5.002760000000000      4.136380000000000
H      -3.391530000000000     -4.888730000000000      5.908430000000000
H      -3.241430000000000     -7.256180000000000      6.001550000000000
H      -3.653650000000000     -7.369510000000000      4.221130000000000
H      -1.055570000000000     -8.336340000000000      5.555420000000000
H      -2.434180000000000     -9.368830000000001      5.010210000000000
H      -1.461910000000000     -8.450040000000000      3.795500000000000
H      -1.824230000000000     -3.671210000000000      3.559470000000000
H      -2.905320000000000     -2.786080000000000      4.704210000000000
H      -1.386530000000000     -3.553910000000000      5.311350000000000
Na     -1.642530000000000     -6.130540000000000      2.132500000000000
Mg     -7.415820000000000     -8.266629999999999     -0.415530000000000
H      -9.490119999999999     -9.326010000000000     -2.443060000000000
C     -10.561220000000000     -7.606480000000000     -1.620290000000000
C      -9.661300000000001     -8.819229999999999     -1.471050000000000
C     -11.933690000000000     -8.044900000000000     -2.123120000000000
H     -10.657570000000000     -7.102370000000000     -0.634010000000000
H     -10.094090000000000     -6.896510000000000     -2.337580000000000
H     -11.819390000000000     -8.556360000000000     -3.103730000000000
H     -12.381080000000001     -8.757040000000000     -1.395570000000000
C     -12.866560000000000     -6.854440000000000     -2.290120000000000
H     -10.056749999999999     -9.528700000000001     -0.714300000000000
H     -13.009980000000001     -6.338990000000000     -1.316730000000000
H     -12.446650000000000     -6.138510000000000     -3.028250000000000
H     -13.850899999999999     -7.213140000000000     -2.656180000000000
C      -5.119910000000000    -10.336399999999999     -1.120560000000000
C      -3.748440000000000    -10.291069999999999     -0.932010000000000
C      -3.462570000000000     -9.072530000000000     -0.334270000000000
C      -4.668250000000000     -8.420730000000001     -0.197600000000000
N      -5.658110000000000     -9.194380000000001     -0.664060000000000
C      -4.918470000000000     -7.043840000000000      0.391940000000000
N      -6.330730000000000     -6.657540000000000      0.185470000000000
C      -6.843100000000000     -5.353940000000000      0.642650000000000
H      -3.035730000000000    -11.060320000000001     -1.196440000000000
H      -5.682340000000000    -11.151529999999999     -1.558040000000000
H      -2.489830000000000     -8.701549999999999     -0.042540000000000
H      -4.259200000000000     -6.319450000000000     -0.122760000000000
H      -4.673300000000000     -7.087340000000000      1.472890000000000
C      -6.148890000000000     -4.220170000000000     -0.135910000000000
C      -8.354350000000000     -5.288810000000000      0.355810000000000
C      -6.617490000000000     -5.180210000000000      2.154360000000000
H      -6.321760000000000     -4.343620000000000     -1.227700000000000
H      -6.546100000000000     -3.229850000000000      0.172900000000000
H      -5.055230000000000     -4.215920000000000      0.046640000000000
H      -8.894579999999999     -6.088000000000000      0.906890000000000
H      -8.771630000000000     -4.306970000000000      0.672960000000000
H      -8.555220000000000     -5.413500000000000     -0.729870000000000
H      -7.114690000000000     -6.000530000000000      2.715520000000000
H      -5.536030000000000     -5.187150000000000      2.396050000000000
H      -7.033410000000000     -4.210000000000000      2.501530000000000

-C 0
6-31g(d,p)
****
-H 0
6-31g(d,p)
****
-Mg 0
6-31g(d,p)
****
-N 0
6-31+g(d,p)
****
-Na 0
6-31g(d,p)
****
-O 0
6-31+g(d,p)
****


