%chk=lowest10_c1_a2_speciation7_speciationDFT36_speciationDFT96_rank04_E228.03.chk
%nprocshared=20
%mem=40GB
#p opt=loose PM7/gen scf=xqc 

lowest10_c1_a2_speciation7_speciationDFT36_speciationDFT96_rank04_E228.03 DFT input

0 1
Mg     -0.355230000000000     -0.254650000000000      0.003110000000000
C       1.645770000000000     -1.332130000000000     -2.647940000000000
C       1.073970000000000      0.983330000000000     -2.744940000000000
O       1.161360000000000     -0.192400000000000     -1.962440000000000
C       3.099950000000000     -1.207420000000000     -3.090570000000000
C       0.078750000000000      0.878850000000000     -3.897510000000000
H       1.592590000000000     -2.175120000000000     -1.925410000000000
H       0.994700000000000     -1.621770000000000     -3.494480000000000
H       0.689550000000000      1.777220000000000     -2.074260000000000
H       2.070920000000000      1.339440000000000     -3.074510000000000
H      -0.903950000000000      0.523340000000000     -3.524340000000000
H      -0.053600000000000      1.881550000000000     -4.354690000000000
H       0.453750000000000      0.191180000000000     -4.680640000000000
H       3.747120000000000     -0.936020000000000     -2.232490000000000
H       3.436830000000000     -2.183780000000000     -3.497890000000000
H       3.200430000000000     -0.446510000000000     -3.889280000000000
H      -0.836270000000000     -3.083120000000000     -0.721060000000000
C      -2.032580000000000     -2.123620000000000     -2.293310000000000
C      -1.535070000000000     -2.234060000000000     -0.868740000000000
C      -2.833290000000000     -3.365260000000000     -2.644220000000000
H      -2.667920000000000     -1.219890000000000     -2.395760000000000
H      -1.167190000000000     -2.021510000000000     -2.976430000000000
H      -2.184090000000000     -4.260910000000000     -2.532040000000000
H      -3.695010000000000     -3.450520000000000     -1.946900000000000
C      -3.345680000000000     -3.290050000000000     -4.073380000000000
H      -2.365950000000000     -2.241350000000000     -0.133290000000000
H      -4.004210000000000     -2.403950000000000     -4.197790000000000
H      -2.493220000000000     -3.216130000000000     -4.782130000000000
H      -3.925730000000000     -4.207850000000000     -4.297520000000000
C       1.604710000000000      1.145430000000000      4.230090000000000
C       0.398700000000000      1.705660000000000      4.588840000000000
C      -0.154600000000000      2.241960000000000      3.436200000000000
C       0.696120000000000      1.976550000000000      2.447900000000000
N       1.806280000000000      1.297630000000000      2.973260000000000
C       0.608930000000000      2.367730000000000      0.984770000000000
N      -0.464080000000000      1.735790000000000      0.194810000000000
C      -1.871220000000000      2.159780000000000      0.198160000000000
H      -0.018880000000000      1.729230000000000      5.587270000000000
H       2.304860000000000      0.644250000000000      4.882380000000000
H      -1.084930000000000      2.778690000000000      3.382230000000000
H       1.558950000000000      2.027620000000000      0.518610000000000
H       0.591120000000000      3.465920000000000      0.875580000000000
C      -1.996720000000000      3.657380000000000      0.487210000000000
C      -2.435640000000000      1.884370000000000     -1.210110000000000
C      -2.687600000000000      1.310650000000000      1.194260000000000
H      -1.397430000000000      4.225900000000000     -0.257320000000000
H      -3.054870000000000      3.978930000000000      0.419450000000000
H      -1.622980000000000      3.894400000000000      1.499900000000000
H      -2.344700000000000      0.808540000000000     -1.461420000000000
H      -3.510870000000000      2.158610000000000     -1.272900000000000
H      -1.878380000000000      2.456700000000000     -1.981800000000000
H      -2.672000000000000      0.235080000000000      0.908710000000000
H      -2.298950000000000      1.375680000000000      2.219800000000000
H      -3.747670000000000      1.642550000000000      1.206070000000000
C       1.249910000000000     -1.831660000000000      2.218950000000000
C       2.810100000000000     -0.822560000000000      0.765190000000000
O       1.502670000000000     -1.337420000000000      0.918470000000000
C      -0.193980000000000     -1.525070000000000      2.623150000000000
C       3.822830000000000     -1.939850000000000      0.616100000000000
H       1.384490000000000     -2.931800000000000      2.207520000000000
H       1.915780000000000     -1.393580000000000      2.993220000000000
H       2.828110000000000     -0.199060000000000     -0.150620000000000
H       3.108570000000000     -0.136920000000000      1.576800000000000
H       3.536560000000000     -2.595680000000000     -0.231670000000000
H       4.823390000000000     -1.500430000000000      0.425100000000000
H       3.858140000000000     -2.533090000000000      1.552010000000000
H      -0.378500000000000     -0.436260000000000      2.656410000000000
H      -0.912660000000000     -1.967950000000000      1.905020000000000
H      -0.398340000000000     -1.940030000000000      3.631440000000000
Na      3.676220000000000     14.322360000000000      8.808850000000000
C       5.395100000000000     17.002630000000000      9.039980000000000
C       5.090580000000000     16.249739999999999     11.240530000000000
O       4.527900000000000     16.348980000000001      9.946199999999999
C       6.321530000000000     16.001580000000001      8.357040000000000
C       4.728800000000000     17.462810000000001     12.093830000000001
H       4.769820000000000     17.486699999999999      8.260160000000001
H       5.979410000000000     17.820630000000001      9.518240000000000
H       4.669080000000000     15.342359999999999     11.723400000000000
H       6.193480000000000     16.104800000000001     11.218760000000000
H       3.627130000000000     17.556419999999999     12.189629999999999
H       5.161900000000000     17.340910000000001     13.108599999999999
H       5.133580000000000     18.393039999999999     11.644760000000000
H       5.726780000000000     15.233290000000000      7.820040000000000
H       6.965010000000000     16.532430000000002      7.625150000000000
H       6.972160000000000     15.499639999999999      9.101720000000000
C       6.071560000000000     12.419169999999999     10.192449999999999
C       4.449900000000000     11.087270000000000      9.059139999999999
O       4.810110000000000     12.366840000000000      9.549899999999999
C       7.247460000000000     12.091240000000001      9.271739999999999
C       4.289150000000000     10.034870000000000     10.155889999999999
H       6.210290000000000     13.469270000000000     10.525230000000001
H       6.087730000000000     11.810269999999999     11.119410000000000
H       3.454660000000000     11.203849999999999      8.578490000000000
H       5.130180000000000     10.745860000000000      8.251790000000000
H       3.587760000000000     10.401320000000000     10.934720000000000
H       3.881250000000000      9.102639999999999      9.711930000000001
H       5.266870000000000      9.789500000000000     10.617550000000000
H       7.218780000000000     12.737579999999999      8.369389999999999
H       8.197970000000000     12.274580000000000      9.815619999999999
H       7.232920000000000     11.024509999999999      8.970219999999999
Na      2.336760000000000     17.259160000000001     10.237190000000000
C       0.823210000000000     15.106850000000000      8.209099999999999
C       0.801340000000000     14.378200000000000     10.432160000000000
O       1.487080000000000     15.134679999999999      9.455130000000000
C       1.394270000000000     16.207619999999999      7.324230000000000
C       1.059460000000000     12.879619999999999     10.282850000000000
H       1.006960000000000     14.135930000000000      7.705300000000000
H      -0.269460000000000     15.295159999999999      8.309889999999999
H       1.194560000000000     14.691670000000000     11.422950000000000
H      -0.288010000000000     14.602560000000000     10.449940000000000
H       2.148590000000000     12.673550000000001     10.328709999999999
H       0.559510000000000     12.336190000000000     11.111850000000000
H       0.653240000000000     12.500209999999999      9.323020000000000
H       2.488280000000000     16.065770000000001      7.191970000000000
H       0.906310000000000     16.182130000000001      6.327110000000000
H       1.213710000000000     17.201419999999999      7.784370000000000
C      -0.267590000000000     19.301300000000001     10.077859999999999
C       1.589240000000000     20.347359999999998      9.171749999999999
O       1.074920000000000     19.143910000000002      9.687620000000001
C      -0.752620000000000     17.976330000000001     10.651140000000000
C       3.029250000000000     20.100239999999999      8.742100000000001
H      -0.363780000000000     20.076170000000001     10.871589999999999
H      -0.905190000000000     19.552000000000000      9.200640000000000
H       1.013680000000000     20.673150000000000      8.276210000000001
H       1.591740000000000     21.142440000000001      9.951029999999999
H       3.059840000000000     19.309139999999999      7.962540000000000
H       3.470980000000000     21.030480000000001      8.328530000000001
H       3.635360000000000     19.768529999999998      9.612970000000001
H      -0.136270000000000     17.692450000000001     11.531459999999999
H      -1.813970000000000     18.058550000000000     10.964110000000000
H      -0.666070000000000     17.179469999999998      9.883699999999999
Mg     -1.775000000000000      7.902390000000000      7.080910000000000
C      -0.873440000000000      8.415810000000000      3.355110000000000
C      -2.784220000000000      9.632600000000000      3.788510000000000
O      -2.117470000000000      8.410030000000001      4.027020000000000
C      -0.354620000000000      6.990600000000000      3.237430000000000
C      -4.070090000000000      9.677040000000000      4.601900000000000
H      -0.961090000000000      8.810689999999999      2.317580000000000
H      -0.134950000000000      9.020810000000001      3.922980000000000
H      -2.154570000000000     10.499309999999999      4.086920000000000
H      -3.058950000000000      9.722220000000000      2.715010000000000
H      -3.845840000000000      9.602359999999999      5.685180000000000
H      -4.600430000000000     10.634530000000000      4.413510000000000
H      -4.732720000000000      8.835490000000000      4.310410000000000
H      -1.073490000000000      6.366660000000000      2.667580000000000
H       0.627600000000000      6.987980000000000      2.720780000000000
H      -0.220670000000000      6.543700000000000      4.234990000000000
H      -4.931450000000000      7.241450000000000      6.350070000000000
C      -4.400650000000000      7.401230000000000      8.469790000000000
C      -4.135760000000000      6.915950000000000      7.049880000000000
C      -4.471290000000000      8.932100000000000      8.534269999999999
H      -5.361540000000000      6.962370000000000      8.809600000000000
H      -3.583460000000000      7.044420000000000      9.135289999999999
H      -3.491310000000000      9.372909999999999      8.248030000000000
H      -5.246670000000000      9.302490000000001      7.830010000000000
C      -4.834090000000000      9.400969999999999      9.940540000000000
H      -4.028370000000000      5.812120000000000      7.024750000000000
H      -5.823470000000000      8.988619999999999     10.233309999999999
H      -4.068750000000000      9.068120000000000     10.673450000000001
H      -4.893370000000000     10.509639999999999      9.963250000000000
C      -1.336240000000000     10.994990000000000      6.550440000000000
C      -0.189430000000000     11.722519999999999      6.290940000000000
C       0.869920000000000     10.826350000000000      6.305220000000000
C       0.318820000000000      9.585900000000001      6.547690000000000
N      -1.004870000000000      9.702740000000000      6.698110000000000
C       1.030420000000000      8.246919999999999      6.662070000000000
N       0.051970000000000      7.132360000000000      6.617200000000000
C       0.446590000000000      5.801740000000000      7.118930000000000
H      -0.134320000000000     12.787000000000001      6.112560000000000
H      -2.344010000000000     11.385109999999999      6.615100000000000
H       1.914180000000000     11.052239999999999      6.142010000000000
H       1.721280000000000      8.130160000000000      5.802380000000000
H       1.608980000000000      8.257120000000000      7.606900000000000
C       0.536420000000000      5.804260000000000      8.654249999999999
C      -0.631570000000000      4.782950000000000      6.696240000000000
C       1.791100000000000      5.370350000000000      6.498520000000000
H      -0.445120000000000      6.079200000000000      9.097470000000000
H       0.816290000000000      4.793460000000000      9.023949999999999
H       1.300430000000000      6.520210000000000      9.015689999999999
H      -0.731680000000000      4.734990000000000      5.591490000000000
H      -0.371510000000000      3.763540000000000      7.056420000000000
H      -1.620430000000000      5.056080000000000      7.120620000000000
H       1.721480000000000      5.375330000000000      5.388660000000000
H       2.608720000000000      6.056740000000000      6.801540000000000
H       2.066670000000000      4.345460000000000      6.826480000000000

-C 0
6-31g(d,p)
****
-H 0
6-31g(d,p)
****
-Mg 0
6-31g(d,p)
****
-N 0
6-31+g(d,p)
****
-Na 0
6-31g(d,p)
****
-O 0
6-31+g(d,p)
****


