%chk=lowest10_c1_a2_speciation7_speciationDFT0_speciationDFT2_rank10_E219.20.chk
%nprocshared=20
%mem=40GB
#p opt=loose PM7/gen scf=xqc 

lowest10_c1_a2_speciation7_speciationDFT0_speciationDFT2_rank10_E219.20 DFT input

0 1
Mg      0.770460000000000     -0.474740000000000      0.170520000000000
H       3.087160000000000      0.737600000000000     -1.328320000000000
C       2.761250000000000     -1.115680000000000     -2.474690000000000
C       2.877170000000000     -0.339770000000000     -1.170410000000000
C       1.566910000000000     -0.688070000000000     -3.345120000000000
H       3.710060000000000     -0.998830000000000     -3.037050000000000
H       2.625090000000000     -2.190580000000000     -2.226030000000000
H       1.590000000000000     -1.301440000000000     -4.272220000000000
H       0.611510000000000     -0.899270000000000     -2.819240000000000
C       1.592230000000000      0.787440000000000     -3.739200000000000
H       3.635610000000000     -0.784620000000000     -0.494340000000000
H       1.467580000000000      1.432690000000000     -2.844720000000000
H       2.545700000000000      1.036060000000000     -4.249530000000000
H       0.748750000000000      0.999400000000000     -4.430410000000000
C      -1.555330000000000     -2.128440000000000     -1.225290000000000
C      -2.920460000000000     -2.162010000000000     -0.989850000000000
C      -3.171800000000000     -1.270400000000000      0.041440000000000
C      -1.957770000000000     -0.721220000000000      0.380650000000000
N      -0.990400000000000     -1.251080000000000     -0.383380000000000
C      -1.673200000000000      0.308050000000000      1.456320000000000
N      -0.293940000000000      0.818180000000000      1.317490000000000
C       0.217730000000000      1.861050000000000      2.225770000000000
H      -3.650180000000000     -2.769580000000000     -1.505710000000000
H      -1.017400000000000     -2.713530000000000     -1.961870000000000
H      -4.129260000000000     -1.038920000000000      0.488210000000000
H      -1.814300000000000     -0.189650000000000      2.438020000000000
H      -2.387220000000000      1.143580000000000      1.339810000000000
C       0.089350000000000      1.426740000000000      3.697320000000000
C       1.704080000000000      2.112040000000000      1.909240000000000
C      -0.559280000000000      3.170600000000000      1.989320000000000
H       0.644180000000000      0.480140000000000      3.871830000000000
H       0.503010000000000      2.208940000000000      4.370180000000000
H      -0.973280000000000      1.275570000000000      3.977420000000000
H       1.836630000000000      2.418610000000000      0.849280000000000
H       2.109280000000000      2.922300000000000      2.556540000000000
H       2.306490000000000      1.195340000000000      2.085500000000000
H      -0.454400000000000      3.491260000000000      0.929400000000000
H      -1.638390000000000      3.045520000000000      2.209730000000000
H      -0.177470000000000      3.981910000000000      2.644110000000000
Na     -3.841890000000000     -6.560610000000000      0.929860000000000
C      -2.347480000000000     -5.354990000000000      3.478490000000000
C      -1.624400000000000     -7.582160000000000      3.319320000000000
O      -2.696380000000000     -6.679320000000000      3.123070000000000
C      -1.754030000000000     -4.609500000000000      2.286430000000000
C      -1.652210000000000     -8.175780000000000      4.725630000000000
H      -3.275910000000000     -4.830760000000000      3.789530000000000
H      -1.661620000000000     -5.311800000000000      4.354350000000000
H      -1.740780000000000     -8.410069999999999      2.587510000000000
H      -0.633220000000000     -7.121640000000000      3.111330000000000
H      -2.606620000000000     -8.713770000000000      4.902580000000000
H      -0.815770000000000     -8.896640000000000      4.837000000000000
H      -1.537820000000000     -7.379500000000000      5.489660000000000
H      -2.477120000000000     -4.593650000000000      1.444250000000000
H      -1.524470000000000     -3.563690000000000      2.579070000000000
H      -0.816680000000000     -5.096730000000000      1.949130000000000
C      -0.972000000000000     -7.206770000000000     -0.698350000000000
C      -2.842750000000000     -7.259300000000000     -2.174720000000000
O      -2.381760000000000     -7.209510000000000     -0.835900000000000
C      -0.295310000000000     -5.980880000000000     -1.312600000000000
C      -2.453590000000000     -8.543210000000000     -2.907050000000000
H      -0.763800000000000     -7.173270000000000      0.391590000000000
H      -0.520870000000000     -8.154590000000001     -1.056920000000000
H      -3.952730000000000     -7.242650000000000     -2.125300000000000
H      -2.559110000000000     -6.351280000000000     -2.745980000000000
H      -2.774750000000000     -9.426600000000001     -2.317010000000000
H      -2.956090000000000     -8.567810000000000     -3.896530000000000
H      -1.359830000000000     -8.586050000000000     -3.083220000000000
H      -0.750340000000000     -5.053010000000000     -0.908220000000000
H       0.784780000000000     -5.993440000000000     -1.056250000000000
H      -0.378420000000000     -5.989670000000000     -2.418130000000000
Na     -4.595440000000000     -7.655520000000000      4.204900000000000
C      -6.715150000000000     -7.089440000000000      1.705260000000000
C      -5.724980000000000     -9.206149999999999      1.560920000000000
O      -5.576360000000000     -7.871400000000000      2.001210000000000
C      -6.645940000000000     -5.800060000000000      2.514500000000000
C      -5.466540000000000     -9.345100000000000      0.061980000000000
H      -6.722650000000000     -6.817880000000000      0.627970000000000
H      -7.662480000000000     -7.604040000000000      1.982720000000000
H      -4.961550000000000     -9.813680000000000      2.092850000000000
H      -6.710890000000000     -9.636390000000000      1.844390000000000
H      -4.454770000000000     -8.964510000000001     -0.187720000000000
H      -5.524970000000000    -10.416150000000000     -0.224490000000000
H      -6.224530000000000     -8.785450000000001     -0.523150000000000
H      -5.712220000000000     -5.246330000000000      2.277440000000000
H      -7.516610000000000     -5.154640000000000      2.273240000000000
H      -6.661860000000000     -6.028430000000000      3.600650000000000
C      -7.127290000000000     -8.129910000000001      6.290800000000000
C      -5.910450000000000     -6.279600000000000      6.967350000000000
O      -6.079690000000000     -7.249850000000000      5.962840000000000
C      -7.238600000000000     -9.168120000000000      5.182170000000000
C      -4.786950000000000     -5.345470000000000      6.537990000000000
H      -6.914910000000000     -8.664880000000000      7.243900000000000
H      -8.095319999999999     -7.583740000000000      6.350830000000000
H      -6.834970000000000     -5.671970000000000      7.091800000000000
H      -5.616960000000000     -6.754720000000000      7.930460000000000
H      -5.051010000000000     -4.854630000000000      5.576820000000000
H      -4.623040000000000     -4.563710000000000      7.308380000000000
H      -3.845300000000000     -5.919970000000000      6.400020000000000
H      -6.286470000000000     -9.734470000000000      5.091950000000000
H      -8.062419999999999     -9.878150000000000      5.402100000000000
H      -7.447380000000000     -8.665609999999999      4.215080000000000
Mg     -2.874210000000000    -13.040179999999999      1.173200000000000
H      -5.549800000000000    -14.144150000000000      2.431150000000000
C      -4.875210000000000    -15.947430000000001      1.384550000000000
C      -5.006300000000000    -14.438450000000000      1.510560000000000
C      -4.135970000000000    -16.584219999999998      2.569610000000000
H      -5.898010000000000    -16.374630000000000      1.326400000000000
H      -4.340120000000000    -16.191820000000000      0.442290000000000
H      -4.667900000000000    -16.355820000000001      3.518770000000000
H      -4.147110000000000    -17.684339999999999      2.418920000000000
C      -2.676240000000000    -16.140100000000000      2.685690000000000
H      -5.514560000000000    -14.017270000000000      0.616410000000000
H      -2.607720000000000    -15.059930000000000      2.925850000000000
H      -2.185810000000000    -16.710400000000000      3.504000000000000
H      -2.128610000000000    -16.343730000000001      1.740700000000000
C      -1.510350000000000    -12.203469999999999      3.919020000000000
C      -0.211470000000000    -11.831870000000000      4.226080000000000
C       0.515390000000000    -11.892090000000000      3.046870000000000
C      -0.364470000000000    -12.317500000000001      2.076650000000000
N      -1.583000000000000    -12.486580000000000      2.608980000000000
C      -0.079930000000000    -12.566470000000001      0.607750000000000
N      -1.231600000000000    -13.256230000000000     -0.011290000000000
C      -1.200390000000000    -13.664899999999999     -1.426840000000000
H       0.164850000000000    -11.545150000000000      5.198510000000000
H      -2.342800000000000    -12.258500000000000      4.608750000000000
H       1.564860000000000    -11.666250000000000      2.915290000000000
H       0.107130000000000    -11.585050000000001      0.124660000000000
H       0.817080000000000    -13.209180000000000      0.530730000000000
C      -0.111940000000000    -14.736649999999999     -1.634220000000000
C      -2.563420000000000    -14.281280000000001     -1.789290000000000
C      -0.939240000000000    -12.456680000000000     -2.342940000000000
H      -0.305550000000000    -15.611990000000000     -0.975580000000000
H      -0.098510000000000    -15.086880000000001     -2.688330000000000
H       0.896910000000000    -14.340650000000000     -1.400840000000000
H      -3.379770000000000    -13.538900000000000     -1.659740000000000
H      -2.569310000000000    -14.624269999999999     -2.848030000000000
H      -2.781530000000000    -15.157349999999999     -1.142550000000000
H      -1.723810000000000    -11.685340000000000     -2.195030000000000
H       0.051490000000000    -12.003690000000001     -2.133340000000000
H      -0.946080000000000    -12.769539999999999     -3.409480000000000

-C 0
6-31g(d,p)
****
-H 0
6-31g(d,p)
****
-Mg 0
6-31g(d,p)
****
-N 0
6-31+g(d,p)
****
-Na 0
6-31g(d,p)
****
-O 0
6-31+g(d,p)
****


