%chk=lowest10_c1_a2_speciation7_speciationDFT0_speciationDFT2_rank02_E218.51.chk
%nprocshared=20
%mem=40GB
#p opt=loose PM7/gen scf=xqc 

lowest10_c1_a2_speciation7_speciationDFT0_speciationDFT2_rank02_E218.51 DFT input

0 1
Mg      0.252800000000000     -0.475990000000000      0.739630000000000
H       1.631980000000000      1.421190000000000      2.675030000000000
C       3.338750000000000      0.227700000000000      1.968550000000000
C       1.903440000000000      0.368690000000000      2.455770000000000
C       3.600790000000000      0.917210000000000      0.618590000000000
H       4.016980000000000      0.634100000000000      2.746830000000000
H       3.555520000000000     -0.855160000000000      1.840580000000000
H       4.672900000000000      0.766290000000000      0.365550000000000
H       2.990070000000000      0.443760000000000     -0.179230000000000
C       3.312730000000000      2.417580000000000      0.629170000000000
H       1.715770000000000     -0.261620000000000      3.348160000000000
H       2.229170000000000      2.607040000000000      0.777270000000000
H       3.892680000000000      2.918860000000000      1.431660000000000
H       3.602050000000000      2.855200000000000     -0.350000000000000
C       1.602620000000000     -1.480030000000000     -1.956690000000000
C       1.076760000000000     -1.688350000000000     -3.221400000000000
C      -0.265840000000000     -1.347950000000000     -3.160900000000000
C      -0.497540000000000     -0.930080000000000     -1.870270000000000
N       0.629810000000000     -1.024890000000000     -1.151510000000000
C      -1.804430000000000     -0.445820000000000     -1.272340000000000
N      -1.559050000000000      0.145840000000000      0.059610000000000
C      -2.666860000000000      0.718520000000000      0.846250000000000
H       1.608150000000000     -2.053040000000000     -4.089520000000000
H       2.626120000000000     -1.656950000000000     -1.650320000000000
H      -0.987450000000000     -1.389640000000000     -3.965120000000000
H      -2.484130000000000     -1.319830000000000     -1.201790000000000
H      -2.232480000000000      0.322900000000000     -1.941980000000000
C      -3.783410000000000     -0.317930000000000      1.067980000000000
C      -2.122660000000000      1.164590000000000      2.216340000000000
C      -3.226950000000000      1.955770000000000      0.117850000000000
H      -3.383310000000000     -1.212760000000000      1.591050000000000
H      -4.599520000000000      0.117370000000000      1.684550000000000
H      -4.229410000000000     -0.636730000000000      0.103640000000000
H      -1.306260000000000      1.908800000000000      2.094560000000000
H      -2.929800000000000      1.633250000000000      2.823240000000000
H      -1.722410000000000      0.297530000000000      2.784130000000000
H      -2.421670000000000      2.708300000000000     -0.032180000000000
H      -3.641700000000000      1.687160000000000     -0.874560000000000
H      -4.043710000000000      2.425680000000000      0.705510000000000
Na     -1.544180000000000     -9.947110000000000      2.129700000000000
C      -3.253740000000000    -11.678319999999999      4.205350000000000
C      -1.888850000000000    -10.314390000000000      5.539670000000000
O      -1.997810000000000    -11.038890000000000      4.329000000000000
C      -4.263430000000000    -10.762350000000000      3.521160000000000
C      -1.319320000000000    -11.187400000000000      6.654900000000000
H      -3.115520000000000    -12.579950000000000      3.571730000000000
H      -3.648880000000000    -12.044400000000000      5.179770000000000
H      -1.190920000000000     -9.467700000000001      5.365650000000000
H      -2.854150000000000     -9.860120000000000      5.856090000000000
H      -0.316680000000000    -11.571450000000000      6.374810000000000
H      -1.218910000000000    -10.583349999999999      7.580280000000000
H      -1.991230000000000    -12.045570000000000      6.862470000000000
H      -3.891010000000000    -10.461860000000000      2.519610000000000
H      -5.227120000000000    -11.298840000000000      3.397980000000000
H      -4.439640000000000     -9.851990000000001      4.129520000000000
C      -2.774090000000000     -7.017310000000000      3.284680000000000
C      -1.706760000000000     -6.749180000000000      1.170690000000000
O      -1.948830000000000     -7.589850000000000      2.285570000000000
C      -4.193450000000000     -6.704550000000000      2.808300000000000
C      -0.932310000000000     -5.478430000000000      1.520310000000000
H      -2.867420000000000     -7.777760000000000      4.088130000000000
H      -2.293680000000000     -6.139190000000000      3.762690000000000
H      -1.069280000000000     -7.331080000000000      0.470890000000000
H      -2.636550000000000     -6.527890000000000      0.607170000000000
H       0.002120000000000     -5.742200000000000      2.057730000000000
H      -0.671610000000000     -4.938670000000000      0.585910000000000
H      -1.544780000000000     -4.795960000000000      2.143460000000000
H      -4.656430000000000     -7.610870000000000      2.364260000000000
H      -4.804630000000000     -6.375810000000000      3.674870000000000
H      -4.194300000000000     -5.881010000000000      2.066070000000000
Na     -0.024020000000000    -12.404059999999999      4.206030000000000
C       0.626390000000000    -11.715980000000000      1.004270000000000
C       1.750460000000000    -10.280880000000000      2.472350000000000
O       0.606130000000000    -11.084860000000001      2.268070000000000
C      -0.415740000000000    -12.827320000000000      0.996980000000000
C       1.631760000000000     -8.931749999999999      1.766560000000000
H       0.357140000000000    -10.988260000000000      0.209010000000000
H       1.611720000000000    -12.184930000000000      0.784130000000000
H       1.824070000000000    -10.086309999999999      3.563910000000000
H       2.690670000000000    -10.804910000000000      2.190840000000000
H       0.716890000000000     -8.403660000000000      2.105710000000000
H       2.516150000000000     -8.307359999999999      2.012530000000000
H       1.592990000000000     -9.064090000000000      0.666020000000000
H      -1.423250000000000    -12.411530000000001      1.212710000000000
H      -0.436430000000000    -13.319950000000000      0.002140000000000
H      -0.168960000000000    -13.587999999999999      1.766730000000000
C       1.936840000000000    -15.075290000000001      4.054330000000000
C      -0.237720000000000    -15.752940000000001      4.466000000000000
O       0.594270000000000    -14.664230000000000      4.146720000000000
C       2.787500000000000    -13.852200000000000      3.739340000000000
C      -1.674020000000000    -15.250730000000001      4.523780000000000
H       2.290720000000000    -15.501260000000000      5.020310000000000
H       2.067260000000000    -15.808800000000000      3.227280000000000
H      -0.179480000000000    -16.540080000000000      3.680810000000000
H       0.023320000000000    -16.170680000000001      5.464470000000000
H      -1.965280000000000    -14.826610000000001      3.539040000000000
H      -2.361390000000000    -16.085290000000001      4.774060000000000
H      -1.770030000000000    -14.458740000000001      5.297900000000000
H       2.681220000000000    -13.094910000000000      4.545930000000000
H       3.855540000000000    -14.140120000000000      3.651880000000000
H       2.458200000000000    -13.400950000000000      2.780520000000000
Mg      3.145340000000000     -7.065450000000000      5.741660000000000
H       5.695540000000000     -8.906269999999999      5.273040000000000
C       6.692330000000000     -7.039460000000000      5.835940000000000
C       5.558680000000000     -7.809810000000000      5.177940000000000
C       6.830480000000000     -7.348950000000000      7.332890000000000
H       7.636670000000000     -7.315220000000000      5.321720000000000
H       6.524500000000000     -5.950050000000000      5.698560000000000
H       7.007460000000000     -8.436349999999999      7.482110000000000
H       7.715920000000000     -6.795850000000000      7.711670000000000
C       5.615520000000000     -6.913860000000000      8.154809999999999
H       5.470570000000000     -7.529550000000000      4.106280000000000
H       4.715140000000000     -7.494240000000000      7.869060000000000
H       5.819350000000000     -7.095050000000000      9.232160000000000
H       5.416000000000000     -5.830080000000000      8.013260000000001
C       1.805060000000000     -8.882750000000000      7.976970000000000
C       0.760100000000000     -8.644550000000001      8.854609999999999
C       0.323710000000000     -7.349060000000000      8.621950000000000
C       1.134390000000000     -6.845760000000000      7.628340000000000
N       2.010560000000000     -7.781260000000000      7.237310000000000
C       1.097020000000000     -5.461060000000000      7.009160000000000
N       2.296070000000000     -5.262610000000000      6.167170000000000
C       2.537590000000000     -3.983500000000000      5.476670000000000
H       0.357510000000000     -9.337280000000000      9.581149999999999
H       2.371870000000000     -9.800210000000000      7.886460000000000
H      -0.479610000000000     -6.831160000000000      9.127840000000001
H       0.166550000000000     -5.377850000000000      6.410110000000000
H       1.095030000000000     -4.714320000000000      7.825480000000000
C       2.754790000000000     -2.864570000000000      6.514450000000000
C       3.817830000000000     -4.118240000000000      4.633270000000000
C       1.363080000000000     -3.628670000000000      4.548600000000000
H       3.606690000000000     -3.121410000000000      7.182210000000000
H       2.980850000000000     -1.899510000000000      6.012630000000000
H       1.853220000000000     -2.712890000000000      7.141720000000000
H       3.703260000000000     -4.914320000000000      3.866790000000000
H       4.046390000000000     -3.162000000000000      4.111680000000000
H       4.685200000000000     -4.375840000000000      5.277410000000000
H       1.207260000000000     -4.433630000000000      3.800360000000000
H       0.425810000000000     -3.490200000000000      5.125700000000000
H       1.568550000000000     -2.679560000000000      4.009190000000000

-C 0
6-31g(d,p)
****
-H 0
6-31g(d,p)
****
-Mg 0
6-31g(d,p)
****
-N 0
6-31+g(d,p)
****
-Na 0
6-31g(d,p)
****
-O 0
6-31+g(d,p)
****


