%chk=lowest10_c1_a2_speciation7_speciationDFT36_speciationDFT37b_rank06_E205.73.chk
%nprocshared=20
%mem=40GB
#p opt=loose PM7/gen scf=xqc 

lowest10_c1_a2_speciation7_speciationDFT36_speciationDFT37b_rank06_E205.73 DFT input

0 1
Mg      0.188340000000000     -0.520470000000000     -0.001300000000000
C       1.306130000000000      0.422390000000000     -2.832650000000000
C       2.987830000000000     -0.704830000000000     -1.571870000000000
O       1.910480000000000      0.207120000000000     -1.572320000000000
C       0.725340000000000     -0.837650000000000     -3.473480000000000
C       4.219460000000000     -0.123240000000000     -2.245950000000000
H       0.452620000000000      1.098190000000000     -2.644070000000000
H       1.969070000000000      0.983310000000000     -3.520720000000000
H       3.241140000000000     -0.887230000000000     -0.504520000000000
H       2.715710000000000     -1.699550000000000     -1.980880000000000
H       4.436770000000000      0.878730000000000     -1.819580000000000
H       5.087140000000000     -0.792220000000000     -2.070970000000000
H       4.049980000000000     -0.037100000000000     -3.337930000000000
H       0.140990000000000     -1.417810000000000     -2.731990000000000
H       0.053950000000000     -0.546820000000000     -4.308370000000000
H       1.534460000000000     -1.472580000000000     -3.884960000000000
H      -0.717160000000000     -2.937320000000000     -0.262300000000000
C       0.701440000000000     -3.003010000000000      1.393060000000000
C       0.301280000000000     -2.583420000000000     -0.006380000000000
C      -0.229630000000000     -2.370750000000000      2.434020000000000
H       0.651640000000000     -4.108850000000000      1.436300000000000
H       1.743670000000000     -2.669350000000000      1.596720000000000
H      -0.082150000000000     -1.270680000000000      2.445770000000000
H      -1.291200000000000     -2.575390000000000      2.181050000000000
C       0.049960000000000     -2.933980000000000      3.821750000000000
H       1.031540000000000     -2.938730000000000     -0.760480000000000
H      -0.149010000000000     -4.027090000000000      3.821760000000000
H       1.105500000000000     -2.753430000000000      4.115450000000000
H      -0.619640000000000     -2.452640000000000      4.565070000000000
C       0.196750000000000      1.339580000000000      3.308810000000000
C       1.357860000000000      1.124020000000000      2.592590000000000
C       1.103470000000000      1.527020000000000      1.296340000000000
C      -0.164060000000000      1.931020000000000      1.269330000000000
N      -0.720460000000000      1.828480000000000      2.552990000000000
C      -0.933850000000000      2.418330000000000      0.066030000000000
N      -1.212560000000000      1.320620000000000     -0.877080000000000
C      -2.575310000000000      0.733420000000000     -0.883550000000000
H       2.277380000000000      0.688910000000000      2.967540000000000
H       0.045590000000000      1.123720000000000      4.353740000000000
H       1.796200000000000      1.495130000000000      0.471910000000000
H      -0.328780000000000      3.191720000000000     -0.453210000000000
H      -1.860570000000000      2.904370000000000      0.410400000000000
C      -3.619050000000000      1.784840000000000     -1.306780000000000
C      -2.591510000000000     -0.399200000000000     -1.930650000000000
C      -2.949910000000000      0.126860000000000      0.485640000000000
H      -3.319040000000000      2.253460000000000     -2.268050000000000
H      -4.614880000000000      1.309710000000000     -1.440250000000000
H      -3.745330000000000      2.577800000000000     -0.545390000000000
H      -1.888040000000000     -1.208070000000000     -1.645560000000000
H      -3.603080000000000     -0.853860000000000     -2.019450000000000
H      -2.292140000000000     -0.015950000000000     -2.929860000000000
H      -2.272400000000000     -0.713560000000000      0.746950000000000
H      -2.897250000000000      0.884810000000000      1.290540000000000
H      -3.989740000000000     -0.267470000000000      0.464190000000000
Na      3.726500000000000     13.745979999999999      7.514840000000000
C       5.445620000000000     16.426250000000000      7.747420000000000
C       5.141140000000000     15.673389999999999      9.947970000000000
O       4.578450000000000     15.772539999999999      8.653630000000000
C       6.371950000000000     15.425200000000000      7.064360000000000
C       4.779190000000000     16.886440000000000     10.801220000000001
H       4.820300000000000     16.910419999999998      6.967690000000000
H       6.030020000000000     17.244180000000000      8.225700000000000
H       4.719750000000000     14.765960000000000     10.430840000000000
H       6.244070000000000     15.528580000000000      9.926230000000000
H       3.677500000000000     16.979990000000001     10.896860000000000
H       5.212110000000000     16.764559999999999     11.816060000000000
H       5.183980000000000     17.816690000000001     10.352200000000000
H       5.777110000000000     14.656910000000000      6.527470000000000
H       7.015320000000000     15.956020000000001      6.332360000000000
H       7.022670000000000     14.923270000000000      7.808970000000000
C       6.121940000000000     11.842670000000000      8.899850000000001
C       4.500280000000000     10.510790000000000      7.766570000000000
O       4.860450000000000     11.790369999999999      8.257350000000001
C       7.297820000000000     11.514849999999999      7.979050000000000
C       4.339410000000000      9.458390000000000      8.863320000000000
H       6.260680000000000     12.892720000000001      9.232749999999999
H       6.138180000000000     11.233660000000000      9.826739999999999
H       3.505100000000000     10.627359999999999      7.285790000000000
H       5.180640000000000     10.169350000000000      6.959300000000000
H       3.637860000000000      9.824809999999999      9.642020000000000
H       3.931670000000000      8.526120000000001      8.419300000000000
H       5.317060000000000      9.213080000000000      9.325170000000000
H       7.269120000000000     12.161339999999999      7.076800000000000
H       8.248350000000000     11.698079999999999      8.522919999999999
H       7.283280000000000     10.448180000000001      7.677350000000000
Na      2.386990000000000     16.682700000000001      8.945440000000000
C       0.873460000000000     14.530410000000000      6.916480000000000
C       0.851420000000000     13.801780000000001      9.139510000000000
O       1.537210000000000     14.558310000000001      8.162570000000001
C       1.444520000000000     15.631169999999999      6.031630000000000
C       1.109730000000000     12.303240000000001      8.990200000000000
H       1.057290000000000     13.559480000000001      6.412720000000000
H      -0.219230000000000     14.718680000000001      7.017180000000000
H       1.244460000000000     14.115300000000000     10.130360000000000
H      -0.237970000000000     14.026020000000001      9.157150000000000
H       2.198890000000000     12.097340000000001      9.036060000000001
H       0.609830000000000     11.759720000000000      9.819160000000000
H       0.703590000000000     11.923800000000000      8.030340000000001
H       2.538520000000000     15.489240000000001      5.899300000000000
H       0.956490000000000     15.605740000000001      5.034540000000000
H       1.264050000000000     16.624939999999999      6.491840000000000
C      -0.217320000000000     18.725020000000001      8.785190000000000
C       1.639480000000000     19.771049999999999      7.879090000000000
O       1.125170000000000     18.567560000000000      8.394900000000000
C      -0.702430000000000     17.400110000000002      9.358510000000001
C       3.079490000000000     19.524020000000000      7.449440000000000
H      -0.313450000000000     19.499910000000000      9.578910000000000
H      -0.854940000000000     18.975760000000001      7.907980000000000
H       1.063910000000000     20.096869999999999      6.983570000000000
H       1.641960000000000     20.566099999999999      8.658410000000000
H       3.110110000000000     18.732949999999999      6.669840000000000
H       3.521150000000000     20.454300000000000      7.035910000000000
H       3.685620000000000     19.192309999999999      8.320290000000000
H      -0.086070000000000     17.116190000000000     10.238799999999999
H      -1.763760000000000     17.482450000000000      9.671519999999999
H      -0.616000000000000     16.603220000000000      8.591060000000001
Mg     -1.724490000000000      7.326320000000000      5.788960000000000
C      -0.823180000000000      7.839290000000000      2.062220000000000
C      -2.733980000000000      9.056120000000000      2.495590000000000
O      -2.067230000000000      7.833540000000000      2.734090000000000
C      -0.304250000000000      6.414040000000000      1.944750000000000
C      -4.019740000000000      9.100590000000000      3.309150000000000
H      -0.910820000000000      8.234140000000000      1.024670000000000
H      -0.084750000000000      8.444390000000000      2.630080000000000
H      -2.104290000000000      9.922850000000000      2.793930000000000
H      -3.008870000000000      9.145680000000000      1.422110000000000
H      -3.795290000000000      9.025880000000001      4.392390000000000
H      -4.550080000000000     10.058100000000000      3.120870000000000
H      -4.682430000000000      8.259060000000000      3.017750000000000
H      -1.022940000000000      5.789680000000000      1.374990000000000
H       0.677980000000000      6.411460000000000      1.428140000000000
H      -0.170240000000000      5.967360000000000      2.942380000000000
H      -4.881840000000000      6.664860000000000      5.057660000000000
C      -4.350700000000000      6.824690000000000      7.177190000000000
C      -4.085940000000000      6.339390000000000      5.757250000000000
C      -4.421250000000000      8.355560000000001      7.241600000000000
H      -5.311590000000000      6.385910000000000      7.517110000000000
H      -3.533480000000000      6.467830000000000      7.842610000000000
H      -3.441290000000000      8.796279999999999      6.955160000000000
H      -5.196720000000000      8.725960000000001      6.537440000000000
C      -4.783730000000000      8.824560000000000      8.647890000000000
H      -3.978830000000000      5.235530000000000      5.732180000000000
H      -5.773110000000000      8.412369999999999      8.940880000000000
H      -4.018290000000000      8.491680000000001      9.380690000000000
H      -4.842860000000000      9.933249999999999      8.670520000000000
C      -1.285660000000000     10.418710000000001      5.258210000000000
C      -0.138920000000000     11.146300000000000      4.998600000000000
C       0.920510000000000     10.250240000000000      5.012820000000000
C       0.369520000000000      9.009790000000001      5.255360000000000
N      -0.954180000000000      9.126519999999999      5.405920000000000
C       1.081230000000000      7.670940000000000      5.369590000000000
N       0.102640000000000      6.556660000000000      5.325350000000000
C       0.497030000000000      5.226210000000000      5.827230000000000
H      -0.083890000000000     12.210770000000000      4.820190000000000
H      -2.293460000000000     10.808719999999999      5.322940000000000
H       1.964750000000000     10.476160000000000      4.849520000000000
H       1.771570000000000      7.553970000000000      4.509490000000000
H       1.660280000000000      7.681010000000000      6.314100000000000
C       0.587190000000000      5.228550000000000      7.362370000000000
C      -0.582020000000000      4.208800000000000      5.405410000000000
C       1.841090000000000      4.794000000000000      5.206130000000000
H      -0.394290000000000      5.503750000000000      7.805580000000000
H       0.866600000000000      4.217520000000000      7.731810000000000
H       1.351500000000000      5.944180000000000      7.723630000000000
H      -0.682960000000000      4.163730000000000      4.300980000000000
H      -0.322210000000000      3.189040000000000      5.764710000000000
H      -1.570560000000000      4.481790000000000      5.830270000000000
H       1.771170000000000      4.798680000000000      4.096260000000000
H       2.659150000000000      5.480080000000000      5.508720000000000
H       2.116450000000000      3.769060000000000      5.534120000000000

-C 0
6-31g(d,p)
****
-H 0
6-31g(d,p)
****
-Mg 0
6-31g(d,p)
****
-N 0
6-31+g(d,p)
****
-Na 0
6-31g(d,p)
****
-O 0
6-31+g(d,p)
****


