%chk=lowest10_c1_a2_speciation7_speciationDFT1_speciationDFT96_rank10_E229.76.chk
%nprocshared=20
%mem=40GB
#p opt=loose PM7/gen scf=xqc 

lowest10_c1_a2_speciation7_speciationDFT1_speciationDFT96_rank10_E229.76 DFT input

0 1
Mg     -0.149840000000000      0.452850000000000     -0.009420000000000
C      -2.418330000000000     -1.884340000000000      1.265580000000000
C      -1.641910000000000     -2.389150000000000     -0.934230000000000
O      -1.451710000000000     -1.650890000000000      0.257930000000000
C      -2.384940000000000     -3.301180000000000      1.829530000000000
C      -2.933270000000000     -2.041090000000000     -1.669290000000000
H      -2.171110000000000     -1.192030000000000      2.099330000000000
H      -3.439580000000000     -1.608950000000000      0.940610000000000
H      -0.812790000000000     -2.106760000000000     -1.613010000000000
H      -1.525650000000000     -3.479760000000000     -0.771790000000000
H      -3.007990000000000     -0.943560000000000     -1.814380000000000
H      -2.930380000000000     -2.534890000000000     -2.663290000000000
H      -3.814610000000000     -2.404670000000000     -1.107330000000000
H      -1.362530000000000     -3.560660000000000      2.170680000000000
H      -3.076820000000000     -3.359970000000000      2.695910000000000
H      -2.721750000000000     -4.032240000000000      1.068480000000000
H      -2.127490000000000      1.658560000000000      1.838980000000000
C      -3.371650000000000      1.560190000000000      0.032310000000000
C      -2.061240000000000      1.819260000000000      0.743140000000000
C      -4.414050000000000      2.551040000000000      0.520310000000000
H      -3.227690000000000      1.668280000000000     -1.062440000000000
H      -3.702490000000000      0.524250000000000      0.240720000000000
H      -4.542880000000000      2.433140000000000      1.618370000000000
H      -4.063070000000000      3.583570000000000      0.303810000000000
C      -5.746990000000000      2.315480000000000     -0.171530000000000
H      -1.636730000000000      2.812910000000000      0.490500000000000
H      -5.635330000000000      2.439690000000000     -1.269910000000000
H      -6.115310000000000      1.290090000000000      0.046260000000000
H      -6.483950000000000      3.053580000000000      0.204230000000000
C       4.649350000000000      0.167080000000000      0.982610000000000
C       4.866200000000000      1.053980000000000     -0.042510000000000
C       3.948150000000000      0.767210000000000     -1.045440000000000
C       3.181040000000000     -0.251260000000000     -0.637910000000000
N       3.597310000000000     -0.684660000000000      0.635710000000000
C       2.066230000000000     -0.955310000000000     -1.382770000000000
N       0.843310000000000     -0.170360000000000     -1.634220000000000
C       0.679150000000000      0.799390000000000     -2.725080000000000
H       5.624740000000000      1.824550000000000     -0.046860000000000
H       5.193960000000000      0.116850000000000      1.916530000000000
H       3.895450000000000      1.283910000000000     -1.988860000000000
H       1.745310000000000     -1.795820000000000     -0.730070000000000
H       2.444480000000000     -1.418590000000000     -2.310440000000000
C       1.546760000000000      0.429370000000000     -3.930390000000000
C      -0.800540000000000      0.755700000000000     -3.154970000000000
C       0.971450000000000      2.228270000000000     -2.222790000000000
H       1.298360000000000     -0.604240000000000     -4.257420000000000
H       1.363480000000000      1.127100000000000     -4.771210000000000
H       2.619890000000000      0.471430000000000     -3.668240000000000
H      -1.460190000000000      1.002320000000000     -2.298890000000000
H      -1.005520000000000      1.487620000000000     -3.965660000000000
H      -1.080940000000000     -0.257910000000000     -3.512420000000000
H       0.263470000000000      2.519990000000000     -1.415240000000000
H       1.985540000000000      2.330040000000000     -1.812060000000000
H       0.860340000000000      2.959290000000000     -3.051690000000000
C       1.485330000000000      0.742120000000000      2.676900000000000
C       1.046120000000000     -1.551980000000000      2.336500000000000
O       0.634320000000000     -0.222210000000000      2.088950000000000
C       1.606470000000000      1.961320000000000      1.759470000000000
C       0.684340000000000     -1.985910000000000      3.741340000000000
H       1.034390000000000      1.069030000000000      3.635260000000000
H       2.512350000000000      0.363740000000000      2.869080000000000
H       0.530080000000000     -2.211650000000000      1.610940000000000
H       2.119970000000000     -1.721240000000000      2.155710000000000
H      -0.405100000000000     -1.858990000000000      3.905390000000000
H       0.960130000000000     -3.052620000000000      3.872070000000000
H       1.248570000000000     -1.372160000000000      4.472240000000000
H       2.060340000000000      1.689150000000000      0.789420000000000
H       0.612860000000000      2.408200000000000      1.555280000000000
H       2.248950000000000      2.729430000000000      2.236980000000000
Na     -8.049300000000001     -5.211150000000000     -4.116910000000000
C      -9.825170000000000     -2.662810000000000     -3.379650000000000
C     -10.728090000000000     -4.441110000000000     -2.144370000000000
O     -10.099850000000000     -4.050060000000000     -3.350420000000000
C      -8.450640000000000     -2.368480000000000     -2.786910000000000
C     -12.247900000000000     -4.355700000000000     -2.260880000000000
H      -9.822880000000000     -2.338970000000000     -4.442060000000000
H     -10.611980000000001     -2.058270000000000     -2.874990000000000
H     -10.450070000000000     -5.498290000000000     -1.946350000000000
H     -10.372220000000000     -3.857670000000000     -1.266410000000000
H     -12.611929999999999     -5.007520000000000     -3.082120000000000
H     -12.709600000000000     -4.694630000000000     -1.309800000000000
H     -12.567900000000000     -3.312000000000000     -2.458640000000000
H      -7.665670000000000     -2.918410000000000     -3.347070000000000
H      -8.243140000000000     -1.280430000000000     -2.855270000000000
H      -8.411940000000000     -2.669940000000000     -1.720420000000000
C      -7.008790000000000     -5.657190000000000     -0.950160000000000
C      -5.647000000000000     -6.859690000000000     -2.493920000000000
O      -6.833150000000000     -6.115160000000000     -2.279110000000000
C      -5.929200000000000     -4.677990000000000     -0.488200000000000
C      -5.595280000000000     -8.166630000000000     -1.703170000000000
H      -7.970420000000000     -5.102490000000000     -0.935170000000000
H      -7.140690000000000     -6.497500000000000     -0.238250000000000
H      -5.639940000000000     -7.135540000000000     -3.570380000000000
H      -4.736390000000000     -6.244190000000000     -2.340960000000000
H      -6.510360000000000     -8.764799999999999     -1.897420000000000
H      -4.707060000000000     -8.751920000000000     -2.020630000000000
H      -5.499160000000000     -7.970140000000000     -0.616340000000000
H      -5.846670000000000     -3.837270000000000     -1.207890000000000
H      -6.205490000000000     -4.272680000000000      0.506630000000000
H      -4.947690000000000     -5.182940000000000     -0.384130000000000
Na    -11.425319999999999     -4.957010000000000     -5.123720000000000
C      -8.859010000000000     -6.133340000000000     -6.881900000000000
C      -9.735709999999999     -7.737370000000000     -5.419890000000000
O      -9.525160000000000     -6.360290000000000     -5.657100000000000
C      -8.993550000000001     -4.659620000000000     -7.244620000000000
C      -8.476440000000000     -8.425820000000000     -4.897120000000000
H      -7.777140000000000     -6.363120000000000     -6.776560000000000
H      -9.301670000000000     -6.721740000000000     -7.716810000000000
H     -10.516330000000000     -7.818470000000000     -4.633320000000000
H     -10.144299999999999     -8.261360000000000     -6.312050000000000
H      -8.122000000000000     -7.923120000000000     -3.973770000000000
H      -8.707369999999999     -9.485379999999999     -4.659580000000000
H      -7.670370000000000     -8.407019999999999     -5.658580000000000
H      -8.568899999999999     -4.024490000000000     -6.437850000000000
H      -8.448869999999999     -4.451350000000000     -8.189439999999999
H     -10.062730000000000     -4.395770000000000     -7.383830000000000
C     -13.393680000000000     -5.180880000000000     -7.781290000000000
C     -13.200820000000000     -2.960950000000000     -7.151190000000000
O     -12.743670000000000     -4.272200000000000     -6.926140000000000
C     -12.877000000000001     -6.578810000000000     -7.468010000000000
C     -12.438850000000000     -2.028150000000000     -6.219270000000000
H     -14.493660000000000     -5.173370000000000     -7.609040000000000
H     -13.158239999999999     -4.956310000000000     -8.845750000000001
H     -12.996380000000000     -2.643850000000000     -8.198610000000000
H     -14.285710000000000     -2.874800000000000     -6.916570000000000
H     -11.349729999999999     -2.091820000000000     -6.429600000000000
H     -12.773580000000001     -0.980570000000000     -6.367780000000000
H     -12.616809999999999     -2.317800000000000     -5.160860000000000
H     -13.094180000000000     -6.838030000000000     -6.409220000000000
H     -13.362489999999999     -7.325230000000000     -8.130070000000000
H     -11.779500000000001     -6.619170000000000     -7.626850000000000
Mg    -11.977169999999999     -7.141170000000000      4.355220000000000
H      -9.146970000000000     -7.584800000000000      5.496440000000000
C      -8.795470000000000     -5.869000000000000      4.187040000000000
C      -9.442650000000000     -7.206190000000000      4.496330000000000
C      -7.278400000000000     -6.029630000000000      4.151220000000000
H      -9.165319999999999     -5.505250000000000      3.203580000000000
H      -9.089840000000001     -5.136250000000000      4.970150000000000
H      -6.925370000000000     -6.405600000000000      5.136310000000000
H      -7.006200000000000     -6.767580000000000      3.365060000000000
C      -6.590650000000000     -4.706320000000000      3.849970000000000
H      -9.228740000000000     -7.955020000000000      3.705250000000000
H      -6.919620000000000     -4.319660000000000      2.862980000000000
H      -6.833490000000000     -3.960150000000000      4.635990000000000
H      -5.492210000000000     -4.863560000000000      3.828730000000000
C     -13.420880000000000     -9.389450000000000      6.059780000000000
C     -14.748279999999999     -9.569380000000001      6.416600000000000
C     -15.454340000000000     -8.503510000000000      5.880120000000000
C     -14.532040000000000     -7.712860000000000      5.233890000000000
N     -13.310460000000001     -8.265290000000000      5.341850000000000
C     -14.775550000000001     -6.417150000000000      4.484660000000000
N     -13.487270000000001     -5.807430000000000      4.093050000000000
C     -13.433880000000000     -4.525330000000000      3.369170000000000
H     -15.155950000000001    -10.384380000000000      6.997030000000000
H     -12.595179999999999    -10.046180000000000      6.309980000000000
H     -16.518560000000001     -8.320729999999999      5.959920000000000
H     -15.322430000000001     -5.725900000000000      5.154460000000000
H     -15.389590000000000     -6.652380000000000      3.590890000000000
C     -13.991880000000000     -3.400750000000000      4.262220000000000
C     -11.964740000000001     -4.203090000000000      3.040550000000000
C     -14.228690000000000     -4.607950000000000      2.053930000000000
H     -13.409129999999999     -3.337490000000000      5.207560000000000
H     -13.930450000000000     -2.419560000000000      3.745210000000000
H     -15.055490000000001     -3.579820000000000      4.518830000000000
H     -11.525670000000000     -4.988280000000000      2.388700000000000
H     -11.886600000000000     -3.228500000000000      2.508810000000000
H     -11.358599999999999     -4.137790000000000      3.969560000000000
H     -13.827100000000000     -5.421120000000000      1.411640000000000
H     -15.302700000000000     -4.804660000000000      2.249030000000000
H     -14.158720000000001     -3.649350000000000      1.496130000000000

-C 0
6-31g(d,p)
****
-H 0
6-31g(d,p)
****
-Mg 0
6-31g(d,p)
****
-N 0
6-31+g(d,p)
****
-Na 0
6-31g(d,p)
****
-O 0
6-31+g(d,p)
****


