%chk=lowest10_c1_a2_speciation7_speciationDFT0_speciationDFT96_rank01_E226.34.chk
%nprocshared=20
%mem=40GB
#p opt=loose PM7/gen scf=xqc 

lowest10_c1_a2_speciation7_speciationDFT0_speciationDFT96_rank01_E226.34 DFT input

0 1
Mg      0.187400000000000      0.451790000000000     -0.179800000000000
C       0.214160000000000     -1.883860000000000     -2.775650000000000
C       1.731670000000000     -2.387670000000000     -1.004040000000000
O       0.604320000000000     -1.649510000000000     -1.435390000000000
C      -0.291100000000000     -3.301090000000000     -3.027140000000000
C       3.014110000000000     -2.041360000000000     -1.755540000000000
H      -0.631490000000000     -1.191510000000000     -2.978460000000000
H       1.005960000000000     -1.608420000000000     -3.497940000000000
H       1.905010000000000     -2.105290000000000      0.053300000000000
H       1.532190000000000     -3.477160000000000     -0.984850000000000
H       3.177240000000000     -0.943750000000000     -1.749790000000000
H       3.872960000000000     -2.533630000000000     -1.253600000000000
H       2.970130000000000     -2.408540000000000     -2.799610000000000
H      -1.097150000000000     -3.560850000000000     -2.311920000000000
H      -0.696150000000000     -3.359770000000000     -4.059260000000000
H       0.536260000000000     -4.032400000000000     -2.938290000000000
H      -0.426500000000000      1.656990000000000     -2.811190000000000
C       1.760650000000000      1.559430000000000     -2.986330000000000
C       0.489970000000000      1.818490000000000     -2.207010000000000
C       1.858590000000000      2.550560000000000     -4.132630000000000
H       2.636890000000000      1.667400000000000     -2.314460000000000
H       1.745640000000000      0.523530000000000     -3.377150000000000
H       0.971800000000000      2.432440000000000     -4.792840000000000
H       1.870310000000000      3.582850000000000     -3.719890000000000
C       3.123980000000000      2.315730000000000     -4.941510000000000
H       0.496520000000000      2.811220000000000     -1.711260000000000
H       4.019570000000000      2.439960000000000     -4.295890000000000
H       3.119660000000000      1.290520000000000     -5.369730000000000
H       3.166530000000000      3.054070000000000     -5.767410000000000
C      -3.032030000000000      0.138740000000000      3.452000000000000
C      -2.286130000000000      1.045310000000000      4.172720000000000
C      -0.953690000000000      0.778750000000000      3.896950000000000
C      -0.939500000000000     -0.231480000000000      3.030940000000000
N      -2.260770000000000     -0.629810000000000      2.775490000000000
C       0.251290000000000     -0.951440000000000      2.426780000000000
N       1.089240000000000     -0.173770000000000      1.495010000000000
C       2.117590000000000      0.795920000000000      1.898240000000000
H      -2.677090000000000      1.804590000000000      4.838660000000000
H      -4.108980000000000      0.055470000000000      3.435110000000000
H      -0.112970000000000      1.292820000000000      4.327610000000000
H      -0.167350000000000     -1.785900000000000      1.823470000000000
H       0.863140000000000     -1.422560000000000      3.215420000000000
C       2.727490000000000      0.424370000000000      3.251500000000000
C       3.230680000000000      0.752610000000000      0.832260000000000
C       1.539540000000000      2.226370000000000      1.900510000000000
H       3.134110000000000     -0.609360000000000      3.198950000000000
H       3.547930000000000      1.121820000000000      3.512780000000000
H       1.964880000000000      0.466290000000000      4.050230000000000
H       2.820690000000000      1.000240000000000     -0.167380000000000
H       4.034970000000000      1.484820000000000      1.061040000000000
H       3.681530000000000     -0.260390000000000      0.767960000000000
H       1.196130000000000      2.520180000000000      0.883540000000000
H       0.676830000000000      2.330960000000000      2.572500000000000
H       2.314550000000000      2.955380000000000      2.219990000000000
C      -2.955840000000000      0.743920000000000     -0.103750000000000
C      -2.439660000000000     -1.549680000000000     -0.304340000000000
O      -2.020630000000000     -0.221080000000000     -0.543890000000000
C      -2.222760000000000      1.963420000000000      0.460040000000000
C      -3.477220000000000     -1.986130000000000     -1.318730000000000
H      -3.558970000000000      1.069690000000000     -0.974750000000000
H      -3.638030000000000      0.366270000000000      0.687900000000000
H      -1.554040000000000     -2.209910000000000     -0.391750000000000
H      -2.810960000000000     -1.713520000000000      0.721810000000000
H      -3.075500000000000     -1.859760000000000     -2.345080000000000
H      -3.728160000000000     -3.052850000000000     -1.145990000000000
H      -4.392480000000000     -1.372280000000000     -1.197650000000000
H      -1.609780000000000      1.692270000000000      1.338240000000000
H      -1.548490000000000      2.410160000000000     -0.297680000000000
H      -2.958260000000000      2.730930000000000      0.777220000000000
Na     -1.542720000000000     -7.236810000000000      1.894250000000000
C      -0.052560000000000     -6.025800000000000      4.442130000000000
C       0.670470000000000     -8.252879999999999      4.282130000000000
O      -0.401590000000000     -7.350030000000000      4.086610000000000
C       0.541910000000000     -5.280770000000000      3.250560000000000
C       0.643660000000000     -8.846290000000000      5.688500000000000
H      -0.981000000000000     -5.501020000000000      4.752230000000000
H       0.632810000000000     -5.982730000000000      5.318300000000000
H       0.553580000000000     -9.080850000000000      3.550460000000000
H       1.661480000000000     -7.792390000000000      4.073400000000000
H      -0.310420000000000     -9.384750000000000      5.865920000000000
H       1.480680000000000     -9.566540000000000      5.799520000000000
H       0.757940000000000     -8.049830000000000      6.452360000000000
H      -0.181080000000000     -5.264460000000000      2.408310000000000
H       0.772140000000000     -4.235400000000000      3.543910000000000
H       1.479000000000000     -5.768550000000000      2.913280000000000
C       1.323550000000000     -7.876370000000000      0.264110000000000
C      -0.547190000000000     -7.928710000000000     -1.212380000000000
O      -0.086140000000000     -7.879000000000000      0.126370000000000
C       2.000160000000000     -6.650780000000000     -0.350730000000000
C      -0.157490000000000     -9.212510000000000     -1.944530000000000
H       1.531490000000000     -7.842260000000000      1.354130000000000
H       1.774660000000000     -8.824510000000000     -0.093660000000000
H      -1.657170000000000     -7.912800000000000     -1.162640000000000
H      -0.264190000000000     -7.020290000000000     -1.783590000000000
H      -0.477580000000000    -10.096010000000000     -1.354000000000000
H      -0.660550000000000     -9.237819999999999     -2.933670000000000
H       0.936230000000000     -9.254530000000001     -2.121100000000000
H       1.544260000000000     -5.723090000000000      0.053170000000000
H       3.080100000000000     -6.662890000000000     -0.093730000000000
H       1.917450000000000     -6.660030000000000     -1.456340000000000
Na     -2.300820000000000     -8.322010000000001      5.167000000000000
C      -4.418620000000000     -7.759240000000000      2.668150000000000
C      -3.427850000000000     -9.875880000000000      2.523710000000000
O      -3.279620000000000     -8.541020000000000      2.963850000000000
C      -4.349560000000000     -6.469770000000000      3.477430000000000
C      -3.170260000000000    -10.015160000000000      1.024610000000000
H      -4.426270000000000     -7.487650000000000      1.590880000000000
H      -5.365800000000000     -8.274070000000000      2.945680000000000
H      -2.663760000000000    -10.482980000000000      3.055210000000000
H      -4.413370000000000    -10.306469999999999      2.807890000000000
H      -2.158610000000000     -9.634790000000001      0.774090000000000
H      -3.228860000000000    -11.086300000000000      0.738500000000000
H      -3.928580000000000     -9.455700000000000      0.439730000000000
H      -3.415600000000000     -5.916200000000000      3.240940000000000
H      -5.219910000000000     -5.824090000000000      3.235700000000000
H      -4.366180000000000     -6.698040000000000      4.563610000000000
C      -4.830800000000000     -8.800360000000000      7.253070000000000
C      -3.613890000000000     -6.949860000000000      7.929710000000000
O      -3.783080000000000     -7.920340000000000      6.925460000000000
C      -4.941810000000000     -9.838329999999999      6.144120000000000
C      -2.490380000000000     -6.015840000000000      7.499950000000000
H      -4.618650000000000     -9.335500000000000      8.206120000000000
H      -5.798800000000000     -8.254149999999999      7.312930000000000
H      -4.538400000000000     -6.342200000000000      8.054020000000000
H      -3.320360000000000     -7.424760000000000      8.892920000000000
H      -2.754520000000000     -5.525240000000000      6.538680000000000
H      -2.326220000000000     -5.233850000000000      8.270040000000000
H      -1.548770000000000     -6.590430000000000      7.361970000000000
H      -3.989710000000000    -10.404760000000000      6.054080000000000
H      -5.765790000000000    -10.548349999999999      6.363430000000000
H      -5.150110000000000     -9.335540000000000      5.177080000000000
Mg     -0.578460000000000    -13.711349999999999      2.136680000000000
H      -3.251140000000000    -14.811769999999999      3.392570000000000
C      -2.578110000000000    -16.616630000000001      2.347030000000000
C      -2.708660000000000    -15.107600000000000      2.471910000000000
C      -1.839320000000000    -17.253499999999999      3.532380000000000
H      -3.601120000000000    -17.043289999999999      2.289070000000000
H      -2.043150000000000    -16.861809999999998      1.404900000000000
H      -2.371150000000000    -17.024799999999999      4.481510000000000
H      -1.851330000000000    -18.353560000000002      3.381500000000000
C      -0.379140000000000    -16.810860000000002      3.648900000000000
H      -3.216850000000000    -14.686809999999999      1.577480000000000
H      -0.309470000000000    -15.731280000000000      3.891400000000000
H       0.110900000000000    -17.383389999999999      4.465940000000000
H       0.168250000000000    -17.013110000000001      2.703490000000000
C       0.785960000000000    -12.875200000000000      4.882880000000000
C       2.084830000000000    -12.503290000000000      5.188840000000000
C       2.811220000000000    -12.562780000000000      4.009250000000000
C       1.930410000000000    -12.988239999999999      3.039680000000000
N       0.712870000000000    -13.157990000000000      3.572150000000000
C       2.214630000000000    -13.236060000000000      1.570210000000000
N       1.063410000000000    -13.927000000000000      0.951530000000000
C       1.095280000000000    -14.335699999999999     -0.464120000000000
H       2.461780000000000    -12.216570000000001      6.161200000000000
H      -0.046000000000000    -12.930720000000001      5.572810000000000
H       3.860260000000000    -12.336539999999999      3.876960000000000
H       2.399660000000000    -12.254040000000000      1.087760000000000
H       3.112400000000000    -13.877370000000001      1.492270000000000
C       2.183940000000000    -15.407349999999999     -0.670780000000000
C      -0.267470000000000    -14.952270000000000     -0.827540000000000
C       1.356840000000000    -13.127500000000000     -1.380120000000000
H       1.989790000000000    -16.282840000000000     -0.012510000000000
H       2.198450000000000    -15.757289999999999     -1.724960000000000
H       3.192570000000000    -15.011410000000000     -0.436390000000000
H      -1.084030000000000    -14.209970000000000     -0.698990000000000
H      -0.272360000000000    -15.295540000000001     -1.886230000000000
H      -0.486080000000000    -15.828250000000001     -0.180880000000000
H       0.572150000000000    -12.356180000000000     -1.232680000000000
H       2.347440000000000    -12.674469999999999     -1.170000000000000
H       1.350610000000000    -13.440379999999999     -2.446650000000000

-C 0
6-31g(d,p)
****
-H 0
6-31g(d,p)
****
-Mg 0
6-31g(d,p)
****
-N 0
6-31+g(d,p)
****
-Na 0
6-31g(d,p)
****
-O 0
6-31+g(d,p)
****


