%chk=lowest10_c1_a2_speciation7_speciationDFT0_speciationDFT37b_rank07_E205.05.chk
%nprocshared=20
%mem=40GB
#p opt=loose PM7/gen scf=xqc 

lowest10_c1_a2_speciation7_speciationDFT0_speciationDFT37b_rank07_E205.05 DFT input

0 1
Mg      0.391940000000000      0.397500000000000     -0.003800000000000
C      -0.993170000000000      0.895770000000000     -2.839300000000000
C      -0.859950000000000      2.913870000000000     -1.575730000000000
O      -1.109880000000000      1.524230000000000     -1.577390000000000
C       0.389940000000000      1.022140000000000     -3.477050000000000
C      -1.979320000000000      3.691290000000000     -2.249030000000000
H      -1.154090000000000     -0.182150000000000     -2.654680000000000
H      -1.807630000000000      1.194280000000000     -3.528730000000000
H      -0.828640000000000      3.224750000000000     -0.508560000000000
H       0.137450000000000      3.176060000000000     -1.984400000000000
H      -2.955420000000000      3.385270000000000     -1.817120000000000
H      -1.828010000000000      4.777290000000000     -2.079300000000000
H      -1.975200000000000      3.497910000000000     -3.340420000000000
H       1.181540000000000      0.794470000000000     -2.735980000000000
H       0.470980000000000      0.303540000000000     -4.319300000000000
H       0.542320000000000      2.043300000000000     -3.878460000000000
H       2.944320000000000      0.826810000000000     -0.259330000000000
C       2.285720000000000      2.085000000000000      1.394610000000000
C       2.125530000000000      1.529320000000000     -0.005460000000000
C       2.202870000000000      0.960780000000000      2.433340000000000
H       3.267430000000000      2.596700000000000      1.441200000000000
H       1.474010000000000      2.819160000000000      1.597240000000000
H       1.177550000000000      0.535010000000000      2.439860000000000
H       2.915180000000000      0.146800000000000      2.182210000000000
C       2.542660000000000      1.483480000000000      3.823230000000000
H       2.069840000000000      2.340670000000000     -0.758520000000000
H       3.587410000000000      1.861500000000000      3.828460000000000
H       1.853960000000000      2.304250000000000      4.114990000000000
H       2.459970000000000      0.661110000000000      4.564420000000000
C      -1.235060000000000     -0.531780000000000      3.311570000000000
C      -1.627140000000000      0.583990000000000      2.594210000000000
C      -1.843880000000000      0.160110000000000      1.297790000000000
C      -1.560650000000000     -1.139040000000000      1.271160000000000
N      -1.197040000000000     -1.567620000000000      2.559280000000000
C      -1.599670000000000     -2.050570000000000      0.070940000000000
N      -0.514070000000000     -1.741940000000000     -0.877270000000000
C       0.676620000000000     -2.627480000000000     -0.883900000000000
H      -1.716580000000000      1.596400000000000      2.968750000000000
H      -0.977830000000000     -0.552900000000000      4.359780000000000
H      -2.162540000000000      0.774510000000000      0.471080000000000
H      -2.574590000000000     -1.916690000000000     -0.444550000000000
H      -1.553540000000000     -3.095390000000000      0.417500000000000
C       0.289620000000000     -4.057230000000000     -1.308800000000000
C       1.665910000000000     -2.074410000000000     -1.929650000000000
C       1.388830000000000     -2.647980000000000      0.485530000000000
H      -0.260010000000000     -4.032300000000000     -2.273620000000000
H       1.198720000000000     -4.684040000000000     -1.435010000000000
H      -0.341260000000000     -4.560100000000000     -0.552600000000000
H       2.012180000000000     -1.059980000000000     -1.644600000000000
H       2.566560000000000     -2.721960000000000     -2.015460000000000
H       1.186150000000000     -2.009700000000000     -2.929960000000000
H       1.768160000000000     -1.638160000000000      0.750290000000000
H       0.709580000000000     -2.991070000000000      1.289410000000000
H       2.257050000000000     -3.342730000000000      0.461040000000000
Na     -2.592140000000000    -11.016430000000000      5.040360000000000
C      -3.286130000000000     -8.661330000000000      2.997520000000000
C      -4.154400000000000    -10.608180000000001      2.017420000000000
O      -3.122690000000000    -10.054250000000000      2.811850000000000
C      -4.131460000000000     -8.374140000000001      4.234350000000000
C      -3.785890000000000    -10.578970000000000      0.536370000000000
H      -2.279560000000000     -8.218410000000000      3.153120000000000
H      -3.710540000000000     -8.154480000000000      2.101760000000000
H      -4.286800000000000    -11.667520000000000      2.325130000000000
H      -5.136490000000000    -10.112250000000000      2.183520000000000
H      -2.851210000000000    -11.149530000000000      0.356660000000000
H      -4.601780000000000    -11.043979999999999     -0.054820000000000
H      -3.646020000000000     -9.534960000000000      0.187880000000000
H      -3.659240000000000     -8.821619999999999      5.133810000000000
H      -4.212550000000000     -7.277110000000000      4.381380000000000
H      -5.151820000000000     -8.792080000000000      4.115950000000000
C      -5.831000000000000    -11.785790000000000      5.556280000000000
C      -4.428360000000000    -12.741460000000000      7.229850000000000
O      -4.511520000000000    -12.079319999999999      5.979900000000000
C      -6.574260000000000    -10.818560000000000      6.478720000000000
C      -5.071700000000000    -14.127840000000001      7.230370000000000
H      -5.739000000000000    -11.280950000000001      4.571840000000000
H      -6.416440000000000    -12.707830000000000      5.362510000000000
H      -3.346460000000000    -12.890040000000001      7.435240000000000
H      -4.802170000000000    -12.108739999999999      8.061170000000001
H      -4.654750000000000    -14.737710000000000      6.402260000000000
H      -4.854900000000000    -14.632270000000000      8.195119999999999
H      -6.173290000000000    -14.056580000000000      7.127410000000000
H      -5.975500000000000     -9.895370000000000      6.627480000000000
H      -7.545780000000000    -10.546860000000001      6.015170000000000
H      -6.790110000000000    -11.287690000000000      7.459760000000000
Na     -1.064420000000000    -10.816260000000000      1.850520000000000
C       0.343740000000000    -11.664300000000001      4.747150000000000
C      -0.769110000000000    -13.462300000000001      3.742530000000000
O      -0.717730000000000    -12.058990000000000      3.902520000000000
C       0.567600000000000    -10.166130000000001      4.582350000000000
C      -1.427160000000000    -14.148940000000000      4.937610000000000
H       0.079000000000000    -11.856540000000001      5.808940000000000
H       1.299460000000000    -12.172390000000000      4.487050000000000
H      -1.395530000000000    -13.667560000000000      2.847940000000000
H       0.230370000000000    -13.898849999999999      3.523320000000000
H      -2.444830000000000    -13.738260000000000      5.100580000000000
H      -1.510000000000000    -15.237869999999999      4.737750000000000
H      -0.822350000000000    -14.007709999999999      5.856540000000000
H      -0.361560000000000     -9.608760000000000      4.828420000000000
H       1.378960000000000     -9.827909999999999      5.260670000000000
H       0.858130000000000     -9.935359999999999      3.536210000000000
C       1.903170000000000    -10.814249999999999      0.372740000000000
C       1.020550000000000     -8.674420000000000      0.318800000000000
O       0.858970000000000     -9.981100000000000      0.814460000000000
C       1.654900000000000    -12.214829999999999      0.916830000000000
C      -0.120040000000000     -7.820730000000000      0.855880000000000
H       1.921670000000000    -10.874739999999999     -0.738880000000000
H       2.882220000000000    -10.459630000000001      0.766060000000000
H       1.978480000000000     -8.231280000000000      0.672950000000000
H       0.967330000000000     -8.663740000000001     -0.793220000000000
H      -0.094150000000000     -7.811320000000000      1.966520000000000
H      -0.024930000000000     -6.779920000000000      0.485670000000000
H      -1.096330000000000     -8.235410000000000      0.523210000000000
H       0.681890000000000    -12.602449999999999      0.544760000000000
H       2.464880000000000    -12.901190000000000      0.594260000000000
H       1.627740000000000    -12.188900000000000      2.025870000000000
Mg     -3.840360000000000    -16.591429999999999      1.806050000000000
H      -0.988880000000000    -17.526489999999999      0.801480000000000
C      -2.024860000000000    -19.456880000000002      0.792810000000000
C      -1.776010000000000    -18.069810000000000      1.362660000000000
C      -2.457810000000000    -19.427910000000001     -0.679540000000000
H      -1.081750000000000    -20.035720000000001      0.879920000000000
H      -2.805340000000000    -19.967120000000001      1.396440000000000
H      -1.679490000000000    -18.927969999999998     -1.296220000000000
H      -2.552640000000000    -20.479900000000001     -1.022380000000000
C      -3.804600000000000    -18.736760000000000     -0.902670000000000
H      -1.500770000000000    -18.135819999999999      2.437340000000000
H      -3.742790000000000    -17.657850000000000     -0.655100000000000
H      -4.091050000000000    -18.832719999999998     -1.972250000000000
H      -4.595700000000000    -19.212569999999999     -0.284480000000000
C      -4.370200000000000    -14.501580000000001     -0.528750000000000
C      -5.515940000000000    -13.827840000000000     -0.918870000000000
C      -6.534720000000000    -14.237930000000000     -0.072310000000000
C      -5.972090000000000    -15.159260000000000      0.783290000000000
N      -4.667950000000000    -15.298370000000000      0.510440000000000
C      -6.654070000000000    -15.930709999999999      1.897640000000000
N      -5.750010000000000    -16.991080000000000      2.391570000000000
C      -6.180280000000000    -17.925480000000000      3.446720000000000
H      -5.600890000000000    -13.114240000000001     -1.727220000000000
H      -3.388120000000000    -14.410819999999999     -0.974080000000000
H      -7.566130000000000    -13.913729999999999     -0.088300000000000
H      -6.909760000000000    -15.212910000000001      2.704340000000000
H      -7.572720000000000    -16.392779999999998      1.489980000000000
C      -7.344790000000000    -18.793130000000001      2.929620000000000
C      -5.000320000000000    -18.851959999999998      3.790660000000000
C      -6.604980000000000    -17.165510000000001      4.715240000000000
H      -7.034460000000000    -19.345880000000001      2.015490000000000
H      -7.657250000000000    -19.532570000000000      3.697500000000000
H      -8.231019999999999    -18.175480000000000      2.680110000000000
H      -4.137240000000000    -18.266600000000000      4.173790000000000
H      -5.295130000000000    -19.589120000000001      4.570550000000000
H      -4.669740000000000    -19.414899999999999      2.892220000000000
H      -5.766010000000000    -16.541910000000001      5.088880000000000
H      -7.476420000000000    -16.509070000000001      4.514290000000000
H      -6.899920000000000    -17.879100000000001      5.514770000000000

-C 0
6-31g(d,p)
****
-H 0
6-31g(d,p)
****
-Mg 0
6-31g(d,p)
****
-N 0
6-31+g(d,p)
****
-Na 0
6-31g(d,p)
****
-O 0
6-31+g(d,p)
****


