%chk=lowest10_c1_a2_speciation0_speciationDFT2_speciationDFT37b_rank02_E164.67.chk
%nprocshared=20
%mem=40GB
#p opt=loose PM7/gen scf=xqc 

lowest10_c1_a2_speciation0_speciationDFT2_speciationDFT37b_rank02_E164.67 DFT input

0 1
Mg      0.132220000000000     -0.532190000000000      0.133130000000000
C      -1.105860000000000     -0.961660000000000     -2.773610000000000
C       1.039390000000000     -1.986780000000000     -2.588980000000000
O       0.218750000000000     -0.879260000000000     -2.284640000000000
C      -1.894560000000000     -2.161540000000000     -2.250070000000000
C       1.411210000000000     -2.025850000000000     -4.062080000000000
H      -1.621670000000000     -0.060600000000000     -2.395860000000000
H      -1.147450000000000     -0.873650000000000     -3.877280000000000
H       1.977200000000000     -1.849210000000000     -2.007440000000000
H       0.617170000000000     -2.950480000000000     -2.237070000000000
H       1.807730000000000     -1.035590000000000     -4.370460000000000
H       2.189170000000000     -2.799650000000000     -4.226390000000000
H       0.521400000000000     -2.279770000000000     -4.672280000000000
H      -1.759530000000000     -2.268650000000000     -1.155470000000000
H      -2.973510000000000     -2.011000000000000     -2.463610000000000
H      -1.568300000000000     -3.091710000000000     -2.755510000000000
H      -0.552530000000000     -2.556650000000000      1.605900000000000
C       1.619410000000000     -2.419740000000000      1.746780000000000
C       0.330680000000000     -2.420460000000000      0.950590000000000
C       1.647430000000000     -1.242420000000000      2.728330000000000
H       1.679360000000000     -3.386230000000000      2.284990000000000
H       2.484410000000000     -2.326600000000000      1.052410000000000
H       1.695090000000000     -0.288150000000000      2.163350000000000
H       0.726840000000000     -1.231950000000000      3.349000000000000
C       2.850990000000000     -1.341930000000000      3.657160000000000
H       0.343980000000000     -3.196090000000000      0.159060000000000
H       2.774240000000000     -2.272190000000000      4.259820000000000
H       3.797220000000000     -1.358510000000000      3.076230000000000
H       2.865870000000000     -0.473040000000000      4.348130000000000
C       2.400110000000000      2.276880000000000      1.404690000000000
C       2.697150000000000      1.529520000000000      0.287460000000000
C       1.570120000000000      1.523460000000000     -0.514280000000000
C       0.610880000000000      2.222160000000000      0.104570000000000
N       1.085580000000000      2.757570000000000      1.318790000000000
C      -0.799330000000000      2.434290000000000     -0.380370000000000
N      -1.588740000000000      1.192250000000000     -0.305230000000000
C      -2.526940000000000      1.028130000000000      0.832400000000000
H       3.636480000000000      1.026980000000000      0.095120000000000
H       3.064670000000000      2.461570000000000      2.235860000000000
H       1.485020000000000      1.018050000000000     -1.464080000000000
H      -0.768750000000000      2.777430000000000     -1.436770000000000
H      -1.257540000000000      3.241630000000000      0.212200000000000
C      -3.627040000000000      2.106560000000000      0.793020000000000
C      -3.205090000000000     -0.348500000000000      0.680530000000000
C      -1.799030000000000      1.056650000000000      2.193190000000000
H      -4.114240000000000      2.116300000000000     -0.205110000000000
H      -4.400350000000000      1.898910000000000      1.563500000000000
H      -3.230440000000000      3.116940000000000      1.008840000000000
H      -2.456800000000000     -1.164350000000000      0.751110000000000
H      -3.959700000000000     -0.518100000000000      1.480100000000000
H      -3.714250000000000     -0.429520000000000     -0.303900000000000
H      -1.081420000000000      0.213280000000000      2.278800000000000
H      -1.247970000000000      2.005590000000000      2.336750000000000
H      -2.531290000000000      0.965910000000000      3.024940000000000
Na      0.610660000000000      3.289780000000000     11.485730000000000
C      -0.401900000000000      4.072430000000000      8.462000000000000
C       0.768140000000000      2.088040000000000      8.433140000000000
O       0.790500000000000      3.432210000000000      8.863580000000001
C      -0.367840000000000      5.523200000000000      8.920610000000000
C       2.048960000000000      1.398120000000000      8.882040000000000
H      -0.499220000000000      4.069380000000000      7.352270000000000
H      -1.287130000000000      3.588890000000000      8.933700000000000
H      -0.088840000000000      1.540810000000000      8.888040000000000
H       0.722460000000000      2.030650000000000      7.321740000000000
H       2.129120000000000      1.422610000000000      9.989699999999999
H       2.042400000000000      0.339250000000000      8.546590000000000
H       2.932730000000000      1.907810000000000      8.442780000000001
H       0.499500000000000      6.047720000000000      8.466120000000000
H      -1.302240000000000      6.036880000000000      8.609450000000001
H      -0.281830000000000      5.572310000000000     10.027100000000001
Na      2.649060000000000      4.535790000000000      7.358230000000000
Mg     -4.770190000000000      6.439320000000000      7.249290000000000
H      -7.089720000000000      8.460509999999999      7.210310000000000
C      -5.636410000000000      9.478260000000001      5.917960000000000
C      -6.005160000000000      8.687250000000001      7.165980000000000
C      -5.865810000000000      8.702010000000000      4.610760000000000
H      -6.217900000000000     10.423629999999999      5.910670000000000
H      -4.555180000000000      9.729889999999999      5.975520000000000
H      -5.571610000000000      9.365230000000000      3.768280000000000
H      -5.217010000000000      7.800930000000000      4.582360000000000
C      -7.316450000000000      8.270260000000000      4.401130000000000
H      -5.704320000000000      9.231719999999999      8.084220000000000
H      -7.619800000000000      7.527770000000000      5.168170000000000
H      -7.993480000000000      9.148809999999999      4.444220000000000
H      -7.416590000000000      7.788550000000000      3.405400000000000
C      -2.918990000000000      5.902460000000000      4.726350000000000
C      -2.373660000000000      4.735660000000000      4.212810000000000
C      -2.802460000000000      3.701260000000000      5.029890000000000
C      -3.604650000000000      4.273080000000000      5.990360000000000
N      -3.654620000000000      5.603960000000000      5.804130000000000
C      -4.339870000000000      3.585760000000000      7.122860000000000
N      -5.275420000000000      4.534580000000000      7.763000000000000
C      -6.125970000000000      4.117770000000000      8.891790000000000
H      -1.734010000000000      4.648240000000000      3.346350000000000
H      -2.778460000000000      6.902890000000000      4.332960000000000
H      -2.566870000000000      2.649900000000000      4.928430000000000
H      -3.582510000000000      3.217960000000000      7.845420000000000
H      -4.911870000000000      2.736150000000000      6.703080000000000
C      -5.275840000000000      3.573880000000000     10.054190000000000
C      -6.920940000000000      5.340830000000000      9.384950000000000
C      -7.126230000000000      3.045550000000000      8.416969999999999
H      -4.553180000000000      4.344150000000000     10.398709999999999
H      -5.926080000000000      3.289810000000000     10.909870000000000
H      -4.713750000000000      2.667800000000000      9.748329999999999
H      -7.542650000000000      5.763900000000000      8.566400000000000
H      -7.597320000000000      5.056800000000000     10.221980000000000
H      -6.235470000000000      6.136240000000000      9.748049999999999
H      -7.744200000000000      3.441840000000000      7.581300000000000
H      -6.603540000000000      2.134110000000000      8.062690000000000
H      -7.804870000000000      2.744300000000000      9.243160000000000

-C 0
6-31g(d,p)
****
-H 0
6-31g(d,p)
****
-Mg 0
6-31g(d,p)
****
-N 0
6-31+g(d,p)
****
-Na 0
6-31g(d,p)
****
-O 0
6-31+g(d,p)
****


