%chk=lowest10_c1_a2_speciation0_speciationDFT37b_speciationDFT37b_rank02_E146.08.chk
%nprocshared=20
%mem=40GB
#p opt=loose PM7/gen scf=xqc 

lowest10_c1_a2_speciation0_speciationDFT37b_speciationDFT37b_rank02_E146.08 DFT input

0 1
Mg     -0.106910000000000      0.353640000000000     -0.337740000000000
C      -3.117220000000000     -0.504770000000000      0.256430000000000
C      -2.866120000000000      1.866040000000000      0.323660000000000
O      -2.327910000000000      0.601840000000000      0.646740000000000
C      -3.381750000000000     -0.587840000000000     -1.246490000000000
C      -4.065670000000000      2.207090000000000      1.192150000000000
H      -2.527180000000000     -1.401140000000000      0.519300000000000
H      -4.044560000000000     -0.585970000000000      0.857270000000000
H      -2.068380000000000      2.609360000000000      0.542260000000000
H      -3.084270000000000      1.982230000000000     -0.757870000000000
H      -3.805060000000000      2.053670000000000      2.260560000000000
H      -4.347960000000000      3.268100000000000      1.032270000000000
H      -4.926620000000000      1.564080000000000      0.920350000000000
H      -2.447400000000000     -0.414940000000000     -1.816550000000000
H      -3.769050000000000     -1.598330000000000     -1.494060000000000
H      -4.142650000000000      0.158280000000000     -1.548870000000000
H       0.120450000000000      0.770740000000000     -2.887030000000000
C       0.844740000000000      2.584270000000000     -1.915590000000000
C      -0.167160000000000      1.468440000000000     -2.075620000000000
C       2.211800000000000      2.020550000000000     -1.511220000000000
H       0.907070000000000      3.118690000000000     -2.883940000000000
H       0.500040000000000      3.287160000000000     -1.124270000000000
H       2.148240000000000      1.586020000000000     -0.492010000000000
H       2.523520000000000      1.217210000000000     -2.211390000000000
C       3.273810000000000      3.112760000000000     -1.530700000000000
H      -1.185380000000000      1.867230000000000     -2.255440000000000
H       3.373370000000000      3.510190000000000     -2.563450000000000
H       3.000360000000000      3.941220000000000     -0.843730000000000
H       4.252310000000000      2.691710000000000     -1.217910000000000
C       2.756090000000000      0.863430000000000      2.098880000000000
C       1.555280000000000      1.532850000000000      2.232270000000000
C       0.559860000000000      0.579300000000000      2.152960000000000
C       1.169910000000000     -0.585500000000000      1.949850000000000
N       2.559960000000000     -0.396510000000000      1.941420000000000
C       0.512350000000000     -1.927360000000000      1.739570000000000
N      -0.164830000000000     -1.996480000000000      0.432390000000000
C       0.511320000000000     -2.727450000000000     -0.667810000000000
H       1.420500000000000      2.602260000000000      2.348890000000000
H       3.737110000000000      1.309750000000000      2.109370000000000
H      -0.500270000000000      0.758290000000000      2.220290000000000
H      -0.240070000000000     -2.084200000000000      2.541450000000000
H       1.273890000000000     -2.716340000000000      1.845260000000000
C       0.666780000000000     -4.219200000000000     -0.315070000000000
C      -0.387270000000000     -2.626670000000000     -1.917500000000000
C       1.884400000000000     -2.112140000000000     -1.012940000000000
H      -0.315690000000000     -4.644780000000000     -0.019610000000000
H       1.049150000000000     -4.786280000000000     -1.191100000000000
H       1.389310000000000     -4.380630000000000      0.507320000000000
H      -0.492090000000000     -1.571170000000000     -2.242060000000000
H       0.041670000000000     -3.196450000000000     -2.771430000000000
H      -1.402290000000000     -3.026440000000000     -1.705750000000000
H       1.772020000000000     -1.070640000000000     -1.382070000000000
H       2.555160000000000     -2.103140000000000     -0.132550000000000
H       2.385820000000000     -2.704120000000000     -1.810030000000000
Na      9.181950000000001      6.908650000000000     10.271050000000001
C       6.732450000000000      5.597260000000000      8.526370000000000
C       8.627050000000001      4.298490000000000      8.357130000000000
O       8.117459999999999      5.610320000000000      8.253220000000001
C       6.186730000000000      7.012390000000000      8.396640000000000
C      10.121960000000000      4.317540000000000      8.073140000000000
H       6.189320000000000      4.954980000000000      7.795660000000000
H       6.538850000000000      5.251900000000000      9.567500000000001
H       8.480960000000000      3.896450000000000      9.385850000000000
H       8.151240000000000      3.633440000000000      7.603420000000000
H      10.642910000000001      4.969100000000000      8.806400000000000
H      10.531459999999999      3.288000000000000      8.152509999999999
H      10.310990000000000      4.700600000000000      7.047780000000000
H       6.350370000000000      7.392510000000000      7.365780000000000
H       5.097170000000000      7.016320000000000      8.611820000000000
H       6.697200000000000      7.686620000000000      9.116940000000000
Na      8.240810000000000      6.109950000000000      5.668350000000000
Mg      5.244220000000000     -0.219530000000000      8.428039999999999
C       3.450730000000000      0.935530000000000     10.838930000000000
C       5.384350000000000     -0.193690000000000     11.654350000000001
O       4.322930000000000     -0.173470000000000     10.721500000000001
C       4.129630000000000      2.291630000000000     10.640359999999999
C       4.904230000000000     -0.517070000000000     13.062010000000001
H       2.713370000000000      0.831380000000000     10.019420000000000
H       2.856260000000000      0.896820000000000     11.773470000000000
H       6.068240000000000     -1.011020000000000     11.338039999999999
H       6.002510000000000      0.726370000000000     11.624480000000000
H       4.308480000000000     -1.453970000000000     13.047100000000000
H       5.781870000000000     -0.653290000000000     13.727230000000000
H       4.286790000000000      0.312320000000000     13.461160000000000
H       4.757290000000000      2.280250000000000      9.727959999999999
H       3.352680000000000      3.077110000000000     10.533010000000001
H       4.757490000000000      2.551890000000000     11.514960000000000
H       7.035380000000000      1.566790000000000      7.747370000000000
C       8.147850000000000     -0.256860000000000      8.155620000000001
C       7.084820000000000      0.763770000000000      8.508550000000000
C       7.805820000000000     -0.944570000000000      6.829590000000000
H       9.120760000000001      0.271570000000000      8.088820000000000
H       8.199730000000001     -1.026980000000000      8.957140000000001
H       6.874520000000000     -1.538830000000000      6.948280000000000
H       7.638290000000000     -0.187400000000000      6.034260000000000
C       8.936870000000001     -1.863920000000000      6.387880000000000
H       7.263980000000000      1.200050000000000      9.512320000000001
H       9.857130000000000     -1.264270000000000      6.220910000000000
H       9.137359999999999     -2.638040000000000      7.158410000000000
H       8.661540000000000     -2.364360000000000      5.435890000000000
C       5.031230000000000     -3.695720000000000      6.758980000000000
C       5.192630000000000     -3.543910000000000      8.125330000000000
C       4.224820000000000     -2.647760000000000      8.535700000000000
C       3.552960000000000     -2.289340000000000      7.446910000000000
N       4.065070000000000     -2.976130000000000      6.330830000000000
C       2.411890000000000     -1.309880000000000      7.371810000000000
N       2.864950000000000      0.068060000000000      7.635560000000000
C       3.040630000000000      0.963610000000000      6.465320000000000
H       5.939760000000000     -4.021180000000000      8.746430000000000
H       5.631010000000000     -4.325150000000000      6.117260000000000
H       4.057030000000000     -2.303880000000000      9.544549999999999
H       1.653880000000000     -1.591600000000000      8.133310000000000
H       1.931890000000000     -1.401830000000000      6.383420000000000
C       1.689170000000000      1.223650000000000      5.769880000000000
C       3.571730000000000      2.316680000000000      6.978760000000000
C       4.068620000000000      0.401020000000000      5.461000000000000
H       0.948400000000000      1.604310000000000      6.504720000000000
H       1.808750000000000      1.984010000000000      4.970310000000000
H       1.277700000000000      0.314910000000000      5.290230000000000
H       4.566560000000000      2.194240000000000      7.452580000000000
H       3.688660000000000      3.043070000000000      6.143760000000000
H       2.876440000000000      2.755910000000000      7.726130000000000
H       5.063040000000000      0.281410000000000      5.940660000000000
H       3.749970000000000     -0.580020000000000      5.057920000000000
H       4.189200000000000      1.095660000000000      4.602550000000000

-C 0
6-31g(d,p)
****
-H 0
6-31g(d,p)
****
-Mg 0
6-31g(d,p)
****
-N 0
6-31+g(d,p)
****
-Na 0
6-31g(d,p)
****
-O 0
6-31+g(d,p)
****


