%chk=lowest10_c1_a2_speciation0_speciationDFT38_speciationDFT38_rank06_E179.95.chk
%nprocshared=20
%mem=40GB
#p opt=loose PM7/gen scf=xqc 

lowest10_c1_a2_speciation0_speciationDFT38_speciationDFT38_rank06_E179.95 DFT input

0 1
Mg     -0.096050000000000      0.822710000000000     -0.535290000000000
C      -1.690240000000000     -1.391070000000000      1.315980000000000
C      -1.225540000000000     -2.307530000000000     -0.845660000000000
O      -1.310410000000000     -1.159420000000000     -0.029300000000000
C      -0.916220000000000     -2.497810000000000      2.036190000000000
C      -2.585260000000000     -2.937660000000000     -1.105140000000000
H      -1.463750000000000     -0.453240000000000      1.860170000000000
H      -2.785710000000000     -1.541970000000000      1.396390000000000
H      -0.823460000000000     -1.974690000000000     -1.821710000000000
H      -0.480880000000000     -3.037050000000000     -0.470870000000000
H      -2.470070000000000     -3.753810000000000     -1.848110000000000
H      -3.287140000000000     -2.177490000000000     -1.506280000000000
H      -2.996390000000000     -3.359710000000000     -0.167440000000000
H       0.170710000000000     -2.341530000000000      1.937750000000000
H      -1.188320000000000     -3.494540000000000      1.634630000000000
H      -1.163600000000000     -2.477430000000000      3.116340000000000
H      -2.198390000000000      1.736990000000000     -1.899920000000000
C      -0.607220000000000      1.708540000000000     -3.409110000000000
C      -1.121870000000000      1.986920000000000     -1.986560000000000
C      -0.662890000000000      0.233560000000000     -3.854310000000000
H      -1.196050000000000      2.324350000000000     -4.120240000000000
H       0.455790000000000      2.027140000000000     -3.463950000000000
H      -0.268440000000000      0.167900000000000     -4.893530000000000
H       0.000510000000000     -0.378170000000000     -3.210330000000000
C      -2.072210000000000     -0.358380000000000     -3.851860000000000
H      -0.970770000000000      3.052630000000000     -1.728220000000000
H      -2.490820000000000     -0.361030000000000     -2.827200000000000
H      -2.741200000000000      0.222250000000000     -4.520070000000000
H      -2.036570000000000     -1.410180000000000     -4.211890000000000
C       2.272890000000000     -2.305490000000000     -0.890910000000000
C       2.420010000000000     -1.168040000000000     -1.648630000000000
C       2.315750000000000     -0.081600000000000     -0.796950000000000
C       2.085070000000000     -0.547020000000000      0.438100000000000
N       2.075470000000000     -1.951370000000000      0.454040000000000
C       1.820140000000000      0.301510000000000      1.655960000000000
N       0.625120000000000      1.117800000000000      1.418170000000000
C       0.246220000000000      2.146550000000000      2.418020000000000
H       2.566100000000000     -1.140590000000000     -2.721350000000000
H       2.287160000000000     -3.320280000000000     -1.259000000000000
H       2.356440000000000      0.958910000000000     -1.087220000000000
H       2.708590000000000      0.928990000000000      1.854250000000000
H       1.639430000000000     -0.375740000000000      2.516870000000000
C       1.294540000000000      3.275390000000000      2.460860000000000
C      -1.110940000000000      2.747490000000000      2.017690000000000
C       0.107770000000000      1.521660000000000      3.827520000000000
H       1.388360000000000      3.756430000000000      1.465040000000000
H       1.002720000000000      4.050030000000000      3.203900000000000
H       2.289700000000000      2.895110000000000      2.767520000000000
H      -1.902360000000000      1.968660000000000      2.011620000000000
H      -1.415240000000000      3.542610000000000      2.735400000000000
H      -1.052340000000000      3.197500000000000      1.004550000000000
H      -0.645550000000000      0.705350000000000      3.825360000000000
H       1.072810000000000      1.106860000000000      4.186310000000000
H      -0.216950000000000      2.285730000000000      4.567940000000000
Na      3.942030000000000    -10.894600000000001      4.966580000000000
C       5.342350000000000    -11.955769999999999      7.742150000000000
C       6.946410000000000    -11.233260000000000      6.255800000000000
O       5.811480000000000    -12.057060000000000      6.414780000000000
C       4.125040000000000    -12.853660000000000      7.910390000000000
C       7.438630000000000    -11.333679999999999      4.819310000000000
H       6.118880000000000    -12.298380000000000      8.463649999999999
H       5.029250000000000    -10.911680000000000      7.971870000000000
H       6.692140000000000    -10.167690000000000      6.453200000000000
H       7.773280000000000    -11.567420000000000      6.923080000000000
H       6.644640000000000    -10.998070000000000      4.118820000000000
H       8.333010000000000    -10.689370000000000      4.683260000000000
H       7.712930000000000    -12.383770000000000      4.582330000000000
H       4.396980000000000    -13.909760000000000      7.699260000000000
H       3.746830000000000    -12.781890000000001      8.952209999999999
H       3.319270000000000    -12.539569999999999      7.213390000000000
Na      6.794210000000000    -14.505770000000000      6.277330000000000
Mg      5.570700000000000     -4.846330000000000      7.256500000000000
C       4.073740000000000     -1.934150000000000      6.508690000000000
C       3.148940000000000     -3.689450000000000      5.176230000000000
O       4.184340000000000     -3.268190000000000      6.041540000000000
C       2.725000000000000     -1.576670000000000      7.138600000000000
C       3.156570000000000     -2.956050000000000      3.840290000000000
H       4.828250000000000     -1.826800000000000      7.313700000000000
H       4.358880000000000     -1.210850000000000      5.717690000000000
H       3.326740000000000     -4.761730000000000      4.963530000000000
H       2.156630000000000     -3.661380000000000      5.668590000000000
H       2.393110000000000     -3.408830000000000      3.173810000000000
H       4.153110000000000     -3.044440000000000      3.360270000000000
H       2.910780000000000     -1.886130000000000      3.984680000000000
H       2.462850000000000     -2.302610000000000      7.929720000000000
H       1.923790000000000     -1.549010000000000      6.372710000000000
H       2.789630000000000     -0.570950000000000      7.600820000000000
H       7.368580000000000     -4.861520000000000      5.249020000000000
C       6.760750000000000     -6.957560000000000      5.424250000000000
C       7.162480000000000     -5.609050000000000      6.041730000000000
C       5.449750000000000     -6.935580000000000      4.614410000000000
H       7.587010000000000     -7.316440000000000      4.774830000000000
H       6.622860000000000     -7.685870000000000      6.251060000000000
H       5.259950000000000     -7.964880000000000      4.235240000000000
H       4.603390000000000     -6.662280000000000      5.277330000000000
C       5.481120000000000     -5.992890000000000      3.411170000000000
H       8.071500000000000     -5.734670000000000      6.662970000000000
H       5.607360000000000     -4.942790000000000      3.739930000000000
H       6.307420000000000     -6.265710000000000      2.722310000000000
H       4.519730000000000     -6.066020000000000      2.856810000000000
C       1.744730000000000     -5.830800000000000      7.635380000000000
C       2.757590000000000     -6.762210000000000      7.668890000000000
C       3.748860000000000     -6.265720000000000      8.495110000000000
C       3.364160000000000     -5.064050000000000      8.933579999999999
N       2.083760000000000     -4.734340000000000      8.444390000000000
C       4.190530000000000     -4.154010000000000      9.801620000000000
N       5.425380000000000     -3.806190000000000      9.084790000000000
C       6.475030000000000     -3.035700000000000      9.794460000000001
H       2.773630000000000     -7.699060000000000      7.128140000000000
H       0.829250000000000     -5.914420000000000      7.066370000000000
H       4.694100000000000     -6.744780000000000      8.715220000000000
H       4.406820000000000     -4.677240000000000     10.752969999999999
H       3.605150000000000     -3.233200000000000     10.006760000000000
C       7.086210000000000     -3.865260000000000     10.941300000000000
C       7.587280000000000     -2.683150000000000      8.793650000000000
C       5.898770000000000     -1.718710000000000     10.366270000000000
H       7.520480000000000     -4.809360000000000     10.551340000000000
H       7.890450000000000     -3.289780000000000     11.450889999999999
H       6.329080000000000     -4.112820000000000     11.712830000000000
H       7.189030000000000     -2.063100000000000      7.963210000000000
H       8.397470000000000     -2.107710000000000      9.295570000000000
H       8.031070000000000     -3.605370000000000      8.363709999999999
H       5.455620000000000     -1.099350000000000      9.557689999999999
H       5.115810000000000     -1.913860000000000     11.128390000000000
H       6.695970000000000     -1.121110000000000     10.860530000000001

-C 0
6-31g(d,p)
****
-H 0
6-31g(d,p)
****
-Mg 0
6-31g(d,p)
****
-N 0
6-31+g(d,p)
****
-Na 0
6-31g(d,p)
****
-O 0
6-31+g(d,p)
****


