%chk=lowest10_c1_a2_speciation0_speciationDFT1_speciationDFT36_rank10_E181.56.chk
%nprocshared=20
%mem=40GB
#p opt=loose PM7/gen scf=xqc 

lowest10_c1_a2_speciation0_speciationDFT1_speciationDFT36_rank10_E181.56 DFT input

0 1
Mg     -0.176380000000000     -0.409960000000000     -0.619820000000000
C      -0.499790000000000      0.859020000000000      2.902740000000000
C       0.608850000000000     -1.162300000000000      2.963330000000000
O      -0.449610000000000     -0.446050000000000      2.359580000000000
C      -1.853110000000000      1.485820000000000      2.603520000000000
C       0.730900000000000     -2.536950000000000      2.319710000000000
H      -0.388470000000000      0.854310000000000      4.009930000000000
H       0.294220000000000      1.492130000000000      2.455460000000000
H       1.575990000000000     -0.631100000000000      2.840110000000000
H       0.410950000000000     -1.310950000000000      4.045870000000000
H       0.961070000000000     -2.444890000000000      1.239210000000000
H       1.548590000000000     -3.108000000000000      2.808280000000000
H      -0.219500000000000     -3.095740000000000      2.438960000000000
H      -2.666550000000000      0.870690000000000      3.038630000000000
H      -1.894750000000000      2.511870000000000      3.024320000000000
H      -2.020070000000000      1.556420000000000      1.519500000000000
H      -1.244040000000000     -3.321840000000000      0.117010000000000
C      -0.509800000000000     -3.072480000000000     -1.947560000000000
C      -1.309320000000000     -2.615280000000000     -0.733140000000000
C       0.975480000000000     -3.266080000000000     -1.611860000000000
H      -0.947000000000000     -4.028730000000000     -2.298750000000000
H      -0.602350000000000     -2.310590000000000     -2.753730000000000
H       1.434900000000000     -2.296020000000000     -1.318680000000000
H       1.079400000000000     -3.977950000000000     -0.765540000000000
C       1.732160000000000     -3.831580000000000     -2.811730000000000
H      -2.363810000000000     -2.397670000000000     -0.998940000000000
H       1.297580000000000     -4.811440000000000     -3.104490000000000
H       1.674220000000000     -3.135500000000000     -3.675360000000000
H       2.799900000000000     -3.985610000000000     -2.547870000000000
C       2.726280000000000     -0.135370000000000      0.607740000000000
C       3.465990000000000      0.984290000000000      0.944600000000000
C       2.695100000000000      2.088200000000000      0.610520000000000
C       1.515690000000000      1.597630000000000      0.100130000000000
N       1.544980000000000      0.258350000000000      0.114670000000000
C       0.332290000000000      2.377360000000000     -0.445110000000000
N      -0.852450000000000      1.501700000000000     -0.600360000000000
C      -1.967120000000000      1.940100000000000     -1.464080000000000
H       4.453790000000000      0.993590000000000      1.381650000000000
H       3.030910000000000     -1.168520000000000      0.733620000000000
H       2.957730000000000      3.129420000000000      0.734580000000000
H       0.073020000000000      3.193600000000000      0.258740000000000
H       0.652860000000000      2.803080000000000     -1.415800000000000
C      -1.573360000000000      1.875820000000000     -2.950520000000000
C      -3.164630000000000      0.994240000000000     -1.238530000000000
C      -2.398140000000000      3.370820000000000     -1.084480000000000
H      -1.312480000000000      0.834930000000000     -3.239720000000000
H      -2.422310000000000      2.212430000000000     -3.585370000000000
H      -0.709880000000000      2.532290000000000     -3.173160000000000
H      -3.499740000000000      1.010160000000000     -0.180330000000000
H      -4.029040000000000      1.294320000000000     -1.871530000000000
H      -2.894670000000000     -0.050320000000000     -1.499210000000000
H      -2.668510000000000      3.416330000000000     -0.006880000000000
H      -1.577590000000000      4.094370000000000     -1.270010000000000
H      -3.277850000000000      3.691810000000000     -1.681060000000000
Na    -16.105060000000002     -0.784430000000000      7.128420000000000
C     -13.823630000000000     -2.369820000000000      5.387040000000000
C     -12.871510000000001     -1.363660000000000      7.227220000000000
O     -13.709560000000000     -1.162640000000000      6.109360000000000
C     -14.716920000000000     -2.144500000000000      4.175660000000000
C     -12.764910000000000     -0.063000000000000      8.010550000000000
H     -12.828989999999999     -2.703960000000000      5.016490000000000
H     -14.292780000000000     -3.162420000000000      6.013310000000000
H     -13.298230000000000     -2.135160000000000      7.908210000000000
H     -11.845000000000001     -1.651990000000000      6.904470000000000
H     -13.769800000000000      0.255800000000000      8.360690000000000
H     -12.107410000000000     -0.209390000000000      8.893630000000000
H     -12.333200000000000      0.734960000000000      7.369740000000000
H     -14.278530000000000     -1.364900000000000      3.517020000000000
H     -14.812450000000000     -3.089050000000000      3.599140000000000
H     -15.727740000000001     -1.819040000000000      4.501390000000000
Na    -12.267230000000000      0.382050000000000      4.534270000000000
Mg     -6.190340000000000     -2.325560000000000      4.893400000000000
H      -3.142870000000000     -2.699310000000000      4.554230000000000
C      -3.881080000000000     -4.607890000000000      3.783440000000000
C      -3.919350000000000     -3.460360000000000      4.775660000000000
C      -2.537960000000000     -5.325190000000000      3.881080000000000
H      -4.709380000000000     -5.313650000000000      4.011810000000000
H      -4.031410000000000     -4.203610000000000      2.758380000000000
H      -1.720960000000000     -4.604690000000000      3.663390000000000
H      -2.404900000000000     -5.717770000000000      4.912910000000000
C      -2.456150000000000     -6.481040000000000      2.895100000000000
H      -3.837080000000000     -3.824070000000000      5.821380000000000
H      -3.253380000000000     -7.224600000000000      3.108180000000000
H      -2.568310000000000     -6.107160000000000      1.855170000000000
H      -1.467270000000000     -6.974550000000000      2.995650000000000
C      -6.080030000000000      0.661940000000000      5.949310000000000
C      -7.029790000000000      1.670080000000000      5.963270000000000
C      -8.174799999999999      1.155070000000000      5.373740000000000
C      -7.870590000000000     -0.138690000000000      5.012070000000000
N      -6.612460000000000     -0.427060000000000      5.372390000000000
C      -8.772110000000000     -1.146560000000000      4.321110000000000
N      -7.995720000000000     -2.352690000000000      3.962150000000000
C      -8.621860000000000     -3.485490000000000      3.258060000000000
H      -6.904940000000000      2.667850000000000      6.361370000000000
H      -5.071700000000000      0.722830000000000      6.338790000000000
H      -9.114820000000000      1.666240000000000      5.218530000000000
H      -9.175160000000000     -0.680540000000000      3.402100000000000
H      -9.596950000000000     -1.399060000000000      5.018500000000000
C      -9.071220000000000     -3.040560000000000      1.853490000000000
C      -7.580140000000000     -4.608460000000000      3.103670000000000
C      -9.820470000000000     -4.026930000000000      4.055950000000000
H      -8.200880000000000     -2.658250000000000      1.275980000000000
H      -9.517500000000000     -3.890760000000000      1.294970000000000
H      -9.833679999999999     -2.237620000000000      1.909730000000000
H      -7.234830000000000     -4.964530000000000      4.097680000000000
H      -8.015960000000000     -5.474930000000000      2.557730000000000
H      -6.696880000000000     -4.250770000000000      2.532210000000000
H      -9.496969999999999     -4.343990000000000      5.070710000000000
H     -10.608790000000001     -3.254780000000000      4.157940000000000
H     -10.270880000000000     -4.900750000000000      3.537860000000000

-C 0
6-31g(d,p)
****
-H 0
6-31g(d,p)
****
-Mg 0
6-31g(d,p)
****
-N 0
6-31+g(d,p)
****
-Na 0
6-31g(d,p)
****
-O 0
6-31+g(d,p)
****


