%chk=lowest10_c1_a2_speciation0_speciationDFT0_speciationDFT2_rank01_E179.65.chk
%nprocshared=20
%mem=40GB
#p opt=loose PM7/gen scf=xqc 

lowest10_c1_a2_speciation0_speciationDFT0_speciationDFT2_rank01_E179.65 DFT input

0 1
Mg      0.668930000000000     -0.619630000000000      0.053040000000000
H       0.631950000000000     -2.160130000000000     -2.536780000000000
C      -0.241630000000000     -3.634780000000000     -1.151900000000000
C       0.778380000000000     -2.564890000000000     -1.514750000000000
C      -1.686780000000000     -3.112260000000000     -1.077900000000000
H      -0.165810000000000     -4.456350000000000     -1.893120000000000
H       0.020180000000000     -4.035460000000000     -0.148540000000000
H      -2.343180000000000     -3.973740000000000     -0.826350000000000
H      -1.783630000000000     -2.360260000000000     -0.266090000000000
C      -2.181610000000000     -2.490040000000000     -2.382210000000000
H       1.818220000000000     -2.930370000000000     -1.390950000000000
H      -1.614040000000000     -1.564610000000000     -2.613440000000000
H      -2.078100000000000     -3.210950000000000     -3.219420000000000
H      -3.252350000000000     -2.213520000000000     -2.276400000000000
C      -1.581540000000000     -0.872450000000000      2.281400000000000
C      -2.172630000000000      0.081190000000000      3.094590000000000
C      -1.600430000000000      1.300260000000000      2.765150000000000
C      -0.699220000000000      1.043410000000000      1.758780000000000
N      -0.690760000000000     -0.268960000000000      1.480790000000000
C       0.200360000000000      2.032730000000000      1.044350000000000
N       0.815590000000000      1.395920000000000     -0.137910000000000
C       1.708990000000000      2.162490000000000     -1.025970000000000
H      -2.929910000000000     -0.090500000000000      3.846250000000000
H      -1.790180000000000     -1.935550000000000      2.284050000000000
H      -1.820240000000000      2.265830000000000      3.200090000000000
H       0.976740000000000      2.358260000000000      1.767290000000000
H      -0.412140000000000      2.893870000000000      0.720950000000000
C       2.880420000000000      2.777500000000000     -0.238420000000000
C       2.275200000000000      1.215600000000000     -2.100730000000000
C       0.901960000000000      3.271270000000000     -1.728620000000000
H       3.462950000000000      1.982270000000000      0.274040000000000
H       3.560680000000000      3.329410000000000     -0.922800000000000
H       2.515590000000000      3.499420000000000      0.520670000000000
H       1.455290000000000      0.744030000000000     -2.684180000000000
H       2.926310000000000      1.775200000000000     -2.809670000000000
H       2.882500000000000      0.408970000000000     -1.637200000000000
H       0.064260000000000      2.825080000000000     -2.308620000000000
H       0.476070000000000      3.986520000000000     -0.996670000000000
H       1.545510000000000      3.850010000000000     -2.424030000000000
Na     -3.628150000000000     -1.735830000000000      9.244500000000000
C      -5.722270000000000     -0.976420000000000     11.618950000000000
C      -6.326010000000000     -2.964520000000000     10.623320000000000
O      -5.967160000000000     -1.619940000000000     10.386620000000001
C      -5.342150000000000      0.474370000000000     11.357960000000000
C      -6.575110000000000     -3.656830000000000      9.290780000000000
H      -6.636690000000000     -0.978300000000000     12.255110000000000
H      -4.873090000000000     -1.458850000000000     12.154470000000000
H      -5.503100000000000     -3.509790000000000     11.139440000000000
H      -7.266350000000000     -3.022320000000000     11.217710000000000
H      -5.654950000000000     -3.632830000000000      8.668900000000001
H      -6.861820000000000     -4.715500000000000      9.465790000000000
H      -7.397670000000000     -3.147920000000000      8.744320000000000
H      -6.168990000000000      0.998040000000000     10.832680000000000
H      -5.146170000000000      0.990350000000000     12.321880000000000
H      -4.425680000000000      0.523140000000000     10.732300000000000
Na     -8.204179999999999     -0.512040000000000      9.536899999999999
Mg     -2.611870000000000     -5.452490000000000      5.878340000000000
H      -3.556900000000000     -7.499370000000000      3.670190000000000
C      -1.391810000000000     -7.591580000000000      3.346150000000000
C      -2.662610000000000     -6.845480000000000      3.717480000000000
C      -1.119890000000000     -8.798080000000001      4.255490000000000
H      -1.498440000000000     -7.945820000000000      2.299680000000000
H      -0.529460000000000     -6.892990000000000      3.392820000000000
H      -1.972080000000000     -9.510640000000000      4.209590000000000
H      -0.214270000000000     -9.311210000000001      3.868750000000000
C      -0.856690000000000     -8.414280000000000      5.713240000000000
H      -2.800330000000000     -5.961810000000000      3.057650000000000
H      -1.762620000000000     -7.975940000000000      6.178260000000000
H      -0.578180000000000     -9.325550000000000      6.285450000000000
H      -0.018350000000000     -7.688460000000000      5.781880000000000
C      -3.909080000000000     -6.966370000000000      8.352830000000001
C      -3.752550000000000     -6.799700000000000      9.719210000000000
C      -2.834260000000000     -5.776360000000000      9.898910000000001
C      -2.454830000000000     -5.377400000000000      8.636419999999999
N      -3.119000000000000     -6.088290000000000      7.714910000000000
C      -1.455570000000000     -4.298870000000000      8.262980000000001
N      -1.163810000000000     -4.370170000000000      6.815470000000000
C      -0.185870000000000     -3.460580000000000      6.192280000000000
H      -4.252710000000000     -7.358140000000000     10.498690000000000
H      -4.559380000000000     -7.679490000000000      7.862750000000000
H      -2.474920000000000     -5.380330000000000     10.838820000000000
H      -1.893620000000000     -3.317670000000000      8.534560000000001
H      -0.524880000000000     -4.473230000000000      8.834530000000001
C       1.219380000000000     -3.743120000000000      6.759510000000000
C      -0.161380000000000     -3.730420000000000      4.677200000000000
C      -0.571200000000000     -1.989820000000000      6.430570000000000
H       1.497960000000000     -4.805290000000000      6.581170000000000
H       1.979180000000000     -3.094510000000000      6.273980000000000
H       1.262760000000000     -3.549880000000000      7.850390000000000
H      -1.157250000000000     -3.534730000000000      4.226120000000000
H       0.584250000000000     -3.075100000000000      4.173870000000000
H       0.113590000000000     -4.786580000000000      4.471890000000000
H      -1.583260000000000     -1.783680000000000      6.021220000000000
H      -0.567040000000000     -1.747570000000000      7.513250000000000
H       0.156470000000000     -1.312780000000000      5.932880000000000

-C 0
6-31g(d,p)
****
-H 0
6-31g(d,p)
****
-Mg 0
6-31g(d,p)
****
-N 0
6-31+g(d,p)
****
-Na 0
6-31g(d,p)
****
-O 0
6-31+g(d,p)
****


