%chk=lowest10_c1_a2_speciation0_speciationDFT0_speciationDFT36_rank05_E180.78.chk
%nprocshared=20
%mem=40GB
#p opt=loose PM7/gen scf=xqc 

lowest10_c1_a2_speciation0_speciationDFT0_speciationDFT36_rank05_E180.78 DFT input

0 1
Mg      0.704130000000000      0.406330000000000      0.089040000000000
C      -2.976610000000000      0.051170000000000     -0.581190000000000
C      -1.876830000000000      0.101860000000000     -2.607740000000000
O      -1.928610000000000      0.660260000000000     -1.310250000000000
C      -3.326890000000000      0.909570000000000      0.624780000000000
C      -0.694580000000000      0.684700000000000     -3.370610000000000
H      -3.905740000000000     -0.042520000000000     -1.186410000000000
H      -2.665010000000000     -0.953060000000000     -0.226720000000000
H      -1.757620000000000     -1.001140000000000     -2.566460000000000
H      -2.799890000000000      0.346600000000000     -3.174500000000000
H       0.259190000000000      0.440760000000000     -2.860680000000000
H      -0.665330000000000      0.260360000000000     -4.396530000000000
H      -0.795590000000000      1.787680000000000     -3.440670000000000
H      -3.640560000000000      1.921620000000000      0.298210000000000
H      -4.146220000000000      0.432910000000000      1.201870000000000
H      -2.460350000000000      1.018920000000000      1.291950000000000
H       1.060480000000000      2.785770000000000     -2.000640000000000
C       2.924190000000000      2.026360000000000     -1.100060000000000
C       1.474720000000000      2.489680000000000     -1.017390000000000
C       3.088190000000000      0.837090000000000     -2.056540000000000
H       3.532690000000000      2.883320000000000     -1.452600000000000
H       3.269620000000000      1.725620000000000     -0.085620000000000
H       2.529060000000000     -0.045810000000000     -1.674590000000000
H       2.689290000000000      1.103190000000000     -3.058500000000000
C       4.561260000000000      0.464650000000000     -2.208750000000000
H       1.347120000000000      3.294480000000000     -0.265080000000000
H       5.130270000000000      1.331060000000000     -2.609090000000000
H       4.993360000000000      0.166770000000000     -1.229840000000000
H       4.666230000000000     -0.382930000000000     -2.918660000000000
C       0.247650000000000     -2.244400000000000     -1.575830000000000
C      -0.343830000000000     -3.444960000000000     -1.224930000000000
C      -0.724760000000000     -3.329630000000000      0.104080000000000
C      -0.365110000000000     -2.063090000000000      0.502310000000000
N       0.209120000000000     -1.418520000000000     -0.522310000000000
C      -0.526160000000000     -1.428350000000000      1.872350000000000
N      -0.308430000000000      0.035520000000000      1.806360000000000
C      -0.029060000000000      0.781880000000000      3.049610000000000
H      -0.479640000000000     -4.304800000000000     -1.864510000000000
H       0.661750000000000     -1.991360000000000     -2.545730000000000
H      -1.217290000000000     -4.077790000000000      0.709240000000000
H      -1.554170000000000     -1.611590000000000      2.244480000000000
H       0.209850000000000     -1.919310000000000      2.538460000000000
C       1.384570000000000      0.473390000000000      3.573920000000000
C      -0.114790000000000      2.291850000000000      2.745680000000000
C      -1.084750000000000      0.439280000000000      4.119600000000000
H       2.150770000000000      0.769200000000000      2.825310000000000
H       1.576280000000000      1.037720000000000      4.513040000000000
H       1.508940000000000     -0.602610000000000      3.799770000000000
H      -1.121950000000000      2.573800000000000      2.373430000000000
H       0.087230000000000      2.890800000000000      3.661270000000000
H       0.630480000000000      2.580490000000000      1.975420000000000
H      -2.105350000000000      0.650570000000000      3.731830000000000
H      -1.031750000000000     -0.633100000000000      4.399740000000000
H      -0.927170000000000      1.040790000000000      5.039460000000000
Na     -0.550050000000000     -0.456860000000000     10.638800000000000
C      -2.643840000000000      0.302710000000000     13.013059999999999
C      -3.247600000000000     -1.685390000000000     12.017390000000001
O      -2.888730000000000     -0.340800000000000     11.780709999999999
C      -2.263710000000000      1.753510000000000     12.752129999999999
C      -3.496720000000000     -2.377730000000000     10.684850000000001
H      -3.558250000000000      0.300810000000000     13.649220000000000
H      -1.794660000000000     -0.179740000000000     13.548579999999999
H      -2.424690000000000     -2.230670000000000     12.533519999999999
H      -4.187930000000000     -1.743190000000000     12.611800000000001
H      -2.576570000000000     -2.353770000000000     10.062950000000001
H      -3.783450000000000     -3.436390000000000     10.859890000000000
H      -4.319280000000000     -1.868840000000000     10.138380000000000
H      -3.090540000000000      2.277220000000000     12.226860000000000
H      -2.067730000000000      2.269450000000000     13.716060000000001
H      -1.347230000000000      1.802310000000000     12.126490000000000
Na     -5.125380000000000      0.766870000000000     10.931170000000000
Mg      0.466220000000000     -4.173500000000000      7.272440000000000
H      -0.478970000000000     -6.218840000000000      5.064330000000000
C       1.686100000000000     -6.311830000000000      4.740280000000000
C       0.415430000000000     -5.565080000000000      5.111070000000000
C       1.957990000000000     -7.518470000000000      5.649660000000000
H       1.579470000000000     -6.666260000000000      3.693880000000000
H       2.548660000000000     -5.613530000000000      4.786930000000000
H       1.105850000000000     -8.231070000000001      5.603840000000000
H       2.863550000000000     -8.031639999999999      5.262760000000000
C       2.221620000000000     -7.135080000000000      7.107450000000000
H       0.277760000000000     -4.681530000000000      4.450840000000000
H       1.315740000000000     -6.697190000000000      7.572960000000000
H       2.500610000000000     -8.046490000000000      7.679270000000000
H       3.059840000000000     -6.409130000000000      7.176120000000000
C      -0.830660000000000     -5.687620000000000      9.746990000000000
C      -0.674050000000000     -5.520850000000000     11.113360000000000
C       0.244090000000000     -4.497400000000000     11.292980000000000
C       0.623370000000000     -4.098490000000000     10.030480000000001
N      -0.040740000000000     -4.809450000000000      9.108990000000000
C       1.622410000000000     -3.019900000000000      9.657069999999999
N       1.914520000000000     -3.091740000000000      8.209759999999999
C       2.892330000000000     -2.182140000000000      7.586700000000000
H      -1.174080000000000     -6.079280000000000     11.892910000000001
H      -1.480880000000000     -6.400820000000000      9.256970000000001
H       0.603490000000000     -4.101220000000000     12.232790000000000
H       1.184000000000000     -2.038730000000000      9.928170000000000
H       2.553050000000000     -3.193800000000000     10.228820000000001
C       4.297650000000000     -2.464530000000000      8.153829999999999
C       2.916540000000000     -2.452190000000000      6.071820000000000
C       2.506930000000000     -0.711440000000000      7.825030000000000
H       4.576350000000000     -3.526620000000000      7.975330000000000
H       5.057380000000000     -1.815760000000000      7.668380000000000
H       4.341020000000000     -2.271370000000000      9.244710000000000
H       1.920100000000000     -2.257650000000000      5.621630000000000
H       3.661830000000000     -1.796600000000000      5.568310000000000
H       3.191900000000000     -3.508170000000000      5.866400000000000
H       1.494930000000000     -0.505220000000000      7.415420000000000
H       2.511040000000000     -0.469150000000000      8.907710000000000
H       3.234900000000000     -0.034470000000000      7.327720000000000

-C 0
6-31g(d,p)
****
-H 0
6-31g(d,p)
****
-Mg 0
6-31g(d,p)
****
-N 0
6-31+g(d,p)
****
-Na 0
6-31g(d,p)
****
-O 0
6-31+g(d,p)
****


