%chk=lowest10_c1_a2_speciation7_speciationDFT37b_speciationDFT37b_rank08_E188.08.chk
%nprocshared=20
%mem=40GB
#p opt=loose PM7/gen scf=xqc 

lowest10_c1_a2_speciation7_speciationDFT37b_speciationDFT37b_rank08_E188.08 DFT input

0 1
Mg      0.347390000000000      0.239690000000000     -0.314860000000000
C      -0.935440000000000     -1.803940000000000     -2.406030000000000
C      -1.076450000000000      0.441850000000000     -3.195260000000000
O      -1.180310000000000     -0.444470000000000     -2.101200000000000
C       0.457110000000000     -2.078800000000000     -2.972750000000000
C      -2.235350000000000      0.280780000000000     -4.165540000000000
H      -0.992090000000000     -2.342970000000000     -1.442950000000000
H      -1.741330000000000     -2.241850000000000     -3.027690000000000
H      -1.131320000000000      1.468650000000000     -2.771970000000000
H      -0.092460000000000      0.389460000000000     -3.704910000000000
H      -3.194520000000000      0.323660000000000     -3.607780000000000
H      -2.208530000000000      1.101210000000000     -4.912010000000000
H      -2.154560000000000     -0.687860000000000     -4.698250000000000
H       1.230290000000000     -1.557560000000000     -2.374220000000000
H       0.655870000000000     -3.170510000000000     -2.940450000000000
H       0.520690000000000     -1.747130000000000     -4.027790000000000
H       2.849280000000000      0.570810000000000     -0.937910000000000
C       1.982220000000000      2.569310000000000     -0.851600000000000
C       1.950470000000000      1.118260000000000     -1.285350000000000
C       1.965490000000000      2.675540000000000      0.677550000000000
H       2.901850000000000      3.023470000000000     -1.270750000000000
H       1.089530000000000      3.096930000000000     -1.256170000000000
H       0.990880000000000      2.311670000000000      1.065150000000000
H       2.769670000000000      2.050080000000000      1.119170000000000
C       2.180700000000000      4.116930000000000      1.121200000000000
H       1.847870000000000      1.027060000000000     -2.385170000000000
H       3.179210000000000      4.462140000000000      0.777320000000000
H       1.397400000000000      4.780820000000000      0.698380000000000
H       2.147290000000000      4.178100000000000      2.229200000000000
C      -1.341140000000000      2.136830000000000      2.558120000000000
C      -1.803210000000000      2.180170000000000      1.264230000000000
C      -1.901700000000000      0.875900000000000      0.812060000000000
C      -1.488070000000000      0.065440000000000      1.797980000000000
N      -1.148170000000000      0.798510000000000      2.945210000000000
C      -1.380390000000000     -1.437790000000000      1.726810000000000
N      -0.280120000000000     -1.860510000000000      0.845000000000000
C       0.994990000000000     -2.287590000000000      1.473720000000000
H      -2.026510000000000      3.080750000000000      0.703170000000000
H      -1.139800000000000      2.988890000000000      3.187860000000000
H      -2.233280000000000      0.578950000000000     -0.167620000000000
H      -2.335140000000000     -1.848860000000000      1.335760000000000
H      -1.253440000000000     -1.826000000000000      2.750750000000000
C       0.780710000000000     -3.541970000000000      2.342390000000000
C       1.973220000000000     -2.656450000000000      0.340670000000000
C       1.633700000000000     -1.158970000000000      2.311220000000000
H       0.278700000000000     -4.335140000000000      1.748840000000000
H       1.755590000000000     -3.933140000000000      2.705250000000000
H       0.171500000000000     -3.328180000000000      3.240120000000000
H       2.197040000000000     -1.770760000000000     -0.288570000000000
H       2.939400000000000     -3.029840000000000      0.746580000000000
H       1.540260000000000     -3.445150000000000     -0.311710000000000
H       1.893710000000000     -0.288600000000000      1.671900000000000
H       0.953590000000000     -0.817150000000000      3.114560000000000
H       2.568570000000000     -1.517170000000000      2.795880000000000
Na     -1.249900000000000     -1.560360000000000     10.195430000000000
C       0.210080000000000     -0.368040000000000      7.611980000000000
C      -0.289140000000000     -2.593380000000000      7.065230000000000
O       0.076370000000000     -1.691540000000000      8.092280000000001
C      -1.119140000000000      0.375270000000000      7.695080000000000
C       0.943890000000000     -3.186790000000000      6.388810000000000
H       0.943770000000000      0.156030000000000      8.260490000000001
H       0.624300000000000     -0.324510000000000      6.579420000000000
H      -0.865710000000000     -3.420150000000000      7.532370000000000
H      -0.964040000000000     -2.133480000000000      6.309330000000000
H       1.575870000000000     -3.718310000000000      7.129990000000000
H       0.624060000000000     -3.915210000000000      5.615620000000000
H       1.545470000000000     -2.391560000000000      5.902080000000000
H      -1.486010000000000      0.388140000000000      8.742800000000001
H      -0.980760000000000      1.421300000000000      7.351450000000000
H      -1.879880000000000     -0.111660000000000      7.051620000000000
C      -4.098080000000000     -2.220150000000000      8.518319999999999
C      -4.440510000000000     -2.274500000000000     10.877370000000001
O      -3.511830000000000     -2.223990000000000      9.808109999999999
C      -4.967970000000000     -0.993860000000000      8.239150000000000
C      -5.270140000000000     -3.558030000000000     10.906480000000000
H      -3.258690000000000     -2.187880000000000      7.792350000000000
H      -4.635840000000000     -3.166940000000000      8.306940000000001
H      -3.842940000000000     -2.257600000000000     11.814200000000000
H      -5.077670000000000     -1.367010000000000     10.917220000000000
H      -4.601070000000000     -4.443920000000000     10.888439999999999
H      -5.875730000000000     -3.581420000000000     11.836570000000000
H      -5.969910000000000     -3.599270000000000     10.047490000000000
H      -4.391490000000000     -0.064380000000000      8.430230000000000
H      -5.286510000000000     -1.007690000000000      7.175610000000000
H      -5.883690000000000     -1.002810000000000      8.864010000000000
Na      1.960910000000000     -2.681670000000000      9.199080000000000
C       0.856510000000000     -2.103610000000000     12.291779999999999
C       0.237400000000000     -4.220060000000000     11.508139999999999
O       0.545030000000000     -2.886150000000000     11.157640000000001
C       1.522560000000000     -0.814940000000000     11.826340000000000
C      -1.191310000000000     -4.356490000000000     12.029930000000000
H      -0.073150000000000     -1.832230000000000     12.836550000000001
H       1.570400000000000     -2.617560000000000     12.974040000000000
H       0.319290000000000     -4.829500000000000     10.582649999999999
H       0.973760000000000     -4.649100000000000     12.223240000000001
H      -1.910800000000000     -3.977240000000000     11.275490000000000
H      -1.411680000000000     -5.426350000000000     12.227729999999999
H      -1.320920000000000     -3.792790000000000     12.975130000000000
H       0.849540000000000     -0.261280000000000     11.137079999999999
H       1.750550000000000     -0.169830000000000     12.700699999999999
H       2.469950000000000     -1.044330000000000     11.295270000000000
C       5.035900000000000     -3.144410000000000     10.351410000000000
C       5.013000000000000     -1.294840000000000      8.959260000000000
O       4.227250000000000     -2.264290000000000      9.608910000000000
C       4.132790000000000     -4.183230000000000     11.002739999999999
C       4.080360000000000     -0.360480000000000      8.200279999999999
H       5.754780000000000     -3.679030000000000      9.690230000000000
H       5.572480000000000     -2.598290000000000     11.159390000000000
H       5.583490000000000     -0.687190000000000      9.697350000000000
H       5.700110000000000     -1.770760000000000      8.223800000000001
H       3.380230000000000      0.131170000000000      8.909200000000000
H       4.666620000000000      0.420570000000000      7.673200000000000
H       3.490000000000000     -0.934790000000000      7.453670000000000
H       3.578150000000000     -4.749470000000000     10.223570000000000
H       4.736550000000000     -4.893240000000000     11.604900000000001
H       3.400210000000000     -3.681490000000000     11.668340000000001
Mg     -1.946590000000000     -1.666080000000000     19.071159999999999
C      -3.275250000000000     -3.721950000000000     16.970920000000000
C      -3.427160000000000     -1.473150000000000     16.198730000000001
O      -3.527300000000000     -2.365610000000000     17.290530000000000
C      -1.873050000000000     -3.986210000000000     16.420590000000001
C      -4.585500000000000     -1.626330000000000     15.222360000000000
H      -3.347760000000000     -4.279780000000000     17.925110000000000
H      -4.066200000000000     -4.147360000000000     16.321560000000002
H      -3.480140000000000     -0.446950000000000     16.622730000000001
H      -2.443230000000000     -1.522760000000000     15.690030000000000
H      -5.547960000000000     -1.544000000000000     15.770030000000000
H      -4.530670000000000     -0.823370000000000     14.458430000000000
H      -4.532090000000000     -2.605020000000000     14.704800000000001
H      -1.109050000000000     -3.509310000000000     17.064720000000001
H      -1.690210000000000     -5.080690000000000     16.393380000000001
H      -1.773780000000000     -3.600240000000000     15.388120000000001
H       0.590430000000000     -1.290510000000000     18.458440000000000
C      -0.301570000000000      0.692520000000000     18.556000000000001
C      -0.319790000000000     -0.757810000000000     18.114690000000000
C      -0.319330000000000      0.784290000000000     20.085480000000000
H       0.611750000000000      1.166010000000000     18.141179999999999
H      -1.200430000000000      1.211140000000000     18.154489999999999
H      -1.281860000000000      0.384060000000000     20.470610000000001
H       0.507970000000000      0.181930000000000     20.517579999999999
C      -0.154580000000000      2.227380000000000     20.544350000000001
H      -0.411390000000000     -0.838970000000000     17.012350000000001
H       0.829000000000000      2.614840000000000     20.202500000000001
H      -0.964340000000000      2.865500000000000     20.131670000000000
H      -0.188200000000000      2.273010000000000     21.653089999999999
C      -3.695860000000000      0.246210000000000     21.999600000000001
C      -4.152370000000000      0.273080000000000     20.701480000000000
C      -4.226350000000000     -1.036880000000000     20.262589999999999
C      -3.814120000000000     -1.833880000000000     21.253689999999999
N      -3.483580000000000     -1.082640000000000     22.399329999999999
C      -3.714120000000000     -3.335600000000000     21.200540000000000
N      -2.639940000000000     -3.776090000000000     20.292290000000001
C      -1.356760000000000     -4.198480000000000     20.908110000000001
H      -4.394750000000000      1.163540000000000     20.135549999999999
H      -3.518390000000000      1.109790000000000     22.624300000000002
H      -4.554870000000000     -1.353020000000000     19.284949999999998
H      -4.682180000000000     -3.742280000000000     20.838259999999998
H      -3.565910000000000     -3.715040000000000     22.225000000000001
C      -1.552730000000000     -5.461080000000000     21.772990000000000
C      -0.381620000000000     -4.556870000000000     19.770099999999999
C      -0.719330000000000     -3.066100000000000     21.740860000000001
H      -2.029710000000000     -6.264560000000000     21.172000000000001
H      -0.573240000000000     -5.832300000000000     22.144069999999999
H      -2.177410000000000     -5.270340000000000     22.666060000000002
H      -0.171370000000000     -3.669440000000000     19.139690000000002
H       0.590670000000000     -4.915380000000000     20.175419999999999
H      -0.804980000000000     -5.356450000000000     19.124590000000001
H      -0.512930000000000     -2.178810000000000     21.105329999999999
H      -1.376460000000000     -2.757340000000000     22.576560000000001
H       0.245060000000000     -3.403430000000000     22.179770000000001

-C 0
6-31g(d,p)
****
-H 0
6-31g(d,p)
****
-Mg 0
6-31g(d,p)
****
-N 0
6-31+g(d,p)
****
-Na 0
6-31g(d,p)
****
-O 0
6-31+g(d,p)
****


