%chk=lowest10_c1_a2_speciation0_speciationDFT2_speciationDFT96_rank02_E186.52.chk
%nprocshared=20
%mem=40GB
#p opt=loose PM7/gen scf=xqc 

lowest10_c1_a2_speciation0_speciationDFT2_speciationDFT96_rank02_E186.52 DFT input

0 1
Mg     -0.162710000000000     -0.205190000000000     -0.383170000000000
C       3.270620000000000     -0.140810000000000     -1.011440000000000
C       2.308870000000000      2.017190000000000     -0.671010000000000
O       2.176490000000000      0.615700000000000     -0.527560000000000
C       4.560280000000000      0.078660000000000     -0.227400000000000
C       2.376750000000000      2.479990000000000     -2.123950000000000
H       2.988310000000000     -1.208880000000000     -0.888750000000000
H       3.434130000000000      0.002980000000000     -2.096340000000000
H       1.387770000000000      2.463200000000000     -0.246170000000000
H       3.137780000000000      2.422400000000000     -0.056150000000000
H       1.529540000000000      2.055580000000000     -2.701400000000000
H       2.311970000000000      3.587570000000000     -2.155410000000000
H       3.335870000000000      2.178770000000000     -2.588920000000000
H       4.391360000000000     -0.086310000000000      0.855680000000000
H       5.325130000000000     -0.642790000000000     -0.584060000000000
H       4.947630000000000      1.103120000000000     -0.393030000000000
H       0.719010000000000     -2.406420000000000     -2.149960000000000
C       0.632440000000000     -0.793020000000000     -3.637810000000000
C       0.090830000000000     -1.538350000000000     -2.437790000000000
C       0.621450000000000     -1.711450000000000     -4.846990000000000
H       0.005530000000000      0.101120000000000     -3.833660000000000
H       1.665050000000000     -0.455550000000000     -3.423740000000000
H       1.249730000000000     -2.603340000000000     -4.632450000000000
H      -0.422310000000000     -2.040080000000000     -5.043620000000000
C       1.164810000000000     -0.995210000000000     -6.072700000000000
H      -0.976600000000000     -1.814930000000000     -2.561800000000000
H       0.540340000000000     -0.106070000000000     -6.304650000000000
H       2.212390000000000     -0.671270000000000     -5.893550000000000
H       1.142190000000000     -1.690090000000000     -6.936220000000000
C      -1.885350000000000     -0.886890000000000      4.116470000000000
C      -3.126850000000000     -0.468270000000000      3.690520000000000
C      -2.914260000000000      0.543850000000000      2.767110000000000
C      -1.596020000000000      0.683330000000000      2.652700000000000
N      -0.966250000000000     -0.218590000000000      3.524540000000000
C      -0.812160000000000      1.672050000000000      1.811290000000000
N      -0.895500000000000      1.507820000000000      0.348620000000000
C      -2.012790000000000      1.970880000000000     -0.486260000000000
H      -4.079780000000000     -0.852890000000000      4.031770000000000
H      -1.677380000000000     -1.660490000000000      4.841470000000000
H      -3.684470000000000      1.103720000000000      2.267220000000000
H       0.257700000000000      1.514570000000000      2.067790000000000
H      -1.047680000000000      2.707020000000000      2.106010000000000
C      -2.688760000000000      3.200450000000000      0.125190000000000
C      -1.426880000000000      2.366280000000000     -1.856480000000000
C      -3.015120000000000      0.823730000000000     -0.728710000000000
H      -1.930060000000000      3.999460000000000      0.275890000000000
H      -3.484070000000000      3.580690000000000     -0.546160000000000
H      -3.143550000000000      2.953870000000000      1.101830000000000
H      -0.912040000000000      1.502240000000000     -2.322380000000000
H      -2.225000000000000      2.702860000000000     -2.552870000000000
H      -0.681560000000000      3.182940000000000     -1.750500000000000
H      -2.531920000000000     -0.021080000000000     -1.268450000000000
H      -3.421690000000000      0.415590000000000      0.206760000000000
H      -3.866160000000000      1.179090000000000     -1.347920000000000
C      -0.039010000000000     -2.674550000000000      1.580600000000000
C       1.746970000000000     -1.227810000000000      2.112950000000000
O       0.853810000000000     -1.681480000000000      1.115770000000000
C      -1.411390000000000     -2.490080000000000      0.928830000000000
C       2.862870000000000     -2.227050000000000      2.341800000000000
H       0.357710000000000     -3.666970000000000      1.286940000000000
H      -0.184720000000000     -2.654380000000000      2.682020000000000
H       2.188270000000000     -0.271440000000000      1.768860000000000
H       1.249580000000000     -0.979860000000000      3.066320000000000
H       3.384550000000000     -2.433290000000000      1.384690000000000
H       3.582130000000000     -1.807130000000000      3.074620000000000
H       2.438310000000000     -3.167960000000000      2.746180000000000
H      -1.854870000000000     -1.514420000000000      1.197190000000000
H      -1.338530000000000     -2.535790000000000     -0.176150000000000
H      -2.101110000000000     -3.288100000000000      1.272390000000000
Na      1.221230000000000      2.873720000000000     12.023910000000001
C       0.208660000000000      3.656450000000000      9.001950000000001
C       1.378610000000000      1.671980000000000      8.973300000000000
O       1.401010000000000      3.016190000000000      9.403639999999999
C       0.242640000000000      5.107260000000000      9.460520000000001
C       2.659420000000000      0.981940000000000      9.422219999999999
H       0.111400000000000      3.653360000000000      7.892220000000000
H      -0.676600000000000      3.172920000000000      9.473599999999999
H       0.521590000000000      1.124790000000000      9.428170000000000
H       1.332870000000000      1.614560000000000      7.861910000000000
H       2.739670000000000      1.006290000000000     10.529870000000001
H       2.652770000000000     -0.076930000000000      9.086779999999999
H       3.543290000000000      1.491490000000000      8.982970000000000
H       1.109960000000000      5.631870000000000      9.006060000000000
H      -0.691770000000000      5.620890000000000      9.149270000000000
H       0.328570000000000      5.156480000000000     10.567000000000000
Na      3.258370000000000      4.119060000000000      7.899080000000000
Mg     -4.160880000000000      6.022900000000000      7.789330000000000
H      -6.478700000000000      8.043170000000000      7.750290000000000
C      -5.025400000000000      9.061130000000000      6.457820000000000
C      -5.394080000000000      8.269570000000000      7.705480000000000
C      -5.255200000000000      8.285710000000000      5.150170000000000
H      -5.606680000000000     10.006620000000000      6.451290000000000
H      -3.944090000000000      9.312440000000000      6.515260000000000
H      -4.961450000000000      8.949579999999999      4.308040000000000
H      -4.606230000000000      7.384780000000000      5.120830000000000
C      -6.705770000000000      7.853680000000000      4.940830000000000
H      -5.092020000000000      8.812700000000000      8.624110000000000
H      -7.008460000000000      7.110440000000000      5.707410000000000
H      -7.383060000000000      8.731960000000001      4.984990000000000
H      -6.806200000000000      7.372750000000000      3.944740000000000
C      -2.308900000000000      5.488310000000000      5.266290000000000
C      -1.764110000000000      4.322560000000000      4.755590000000000
C      -2.192680000000000      3.284100000000000      5.568530000000000
C      -2.995600000000000      3.859230000000000      6.529000000000000
N      -3.046750000000000      5.185310000000000      6.346240000000000
C      -3.729970000000000      3.168510000000000      7.662900000000000
N      -4.665610000000000      4.118590000000000      8.302390000000001
C      -5.516060000000000      3.701440000000000      9.431570000000001
H      -1.122010000000000      4.240710000000000      3.891010000000000
H      -2.168750000000000      6.487810000000000      4.875400000000000
H      -1.956580000000000      2.234060000000000      5.464910000000000
H      -2.971730000000000      2.803340000000000      8.385070000000001
H      -4.301160000000000      2.319040000000000      7.243730000000000
C      -4.665740000000000      3.157650000000000     10.593669999999999
C      -6.311110000000000      4.924530000000000      9.925060000000000
C      -6.516050000000000      2.629540000000000      8.956230000000000
H      -3.943250000000000      3.927970000000000     10.938480000000000
H      -5.315940000000000      2.873220000000000     11.449290000000000
H      -4.103430000000000      2.251780000000000     10.287559999999999
H      -6.932850000000000      5.347990000000000      9.106790000000000
H      -6.987610000000000      4.639910000000000     10.761889999999999
H      -5.625920000000000      5.719830000000000     10.288860000000000
H      -7.134080000000000      3.026250000000000      8.120790000000000
H      -5.993180000000000      1.718450000000000      8.601340000000000
H      -7.194490000000000      2.327650000000000      9.782310000000001

-C 0
6-31g(d,p)
****
-H 0
6-31g(d,p)
****
-Mg 0
6-31g(d,p)
****
-N 0
6-31+g(d,p)
****
-Na 0
6-31g(d,p)
****
-O 0
6-31+g(d,p)
****


