%chk=lowest10_c1_a2_speciation7_speciationDFT1_speciationDFT96_rank07_E229.57.chk
%nprocshared=20
%mem=40GB
#p opt=loose PM7/gen scf=xqc 

lowest10_c1_a2_speciation7_speciationDFT1_speciationDFT96_rank07_E229.57 DFT input

0 1
Mg     -0.369130000000000     -0.132960000000000      0.197430000000000
C       0.536170000000000      2.973530000000000      1.523070000000000
C       2.120100000000000      1.240400000000000      1.951660000000000
O       1.012000000000000      1.682450000000000      1.190610000000000
C       1.527250000000000      4.090180000000000      1.210870000000000
C       1.814580000000000      1.075000000000000      3.437980000000000
H      -0.362850000000000      3.145410000000000      0.892450000000000
H       0.183510000000000      3.034720000000000      2.570140000000000
H       2.376560000000000      0.230930000000000      1.573490000000000
H       3.023510000000000      1.856750000000000      1.769050000000000
H       0.907640000000000      0.450590000000000      3.575490000000000
H       2.672860000000000      0.573090000000000      3.931310000000000
H       1.668580000000000      2.060390000000000      3.922290000000000
H       1.859870000000000      4.033060000000000      0.155020000000000
H       1.030070000000000      5.068960000000000      1.376590000000000
H       2.406010000000000      4.031070000000000      1.882660000000000
H      -2.707620000000000      1.506710000000000      0.985590000000000
C      -2.151210000000000      0.739770000000000      2.966410000000000
C      -2.356120000000000      0.575650000000000      1.476150000000000
C      -3.481070000000000      1.061940000000000      3.625360000000000
H      -1.734690000000000     -0.197530000000000      3.389310000000000
H      -1.426930000000000      1.557330000000000      3.148550000000000
H      -3.886500000000000      2.000290000000000      3.187940000000000
H      -4.193810000000000      0.231380000000000      3.429770000000000
C      -3.310650000000000      1.238110000000000      5.125630000000000
H      -3.001180000000000     -0.294460000000000      1.234710000000000
H      -2.914640000000000      0.303950000000000      5.578230000000000
H      -2.609070000000000      2.073670000000000      5.335610000000000
H      -4.296740000000000      1.470110000000000      5.576110000000000
C       0.648990000000000     -1.323650000000000     -4.454270000000000
C       0.378700000000000     -2.629760000000000     -4.129400000000000
C       0.831840000000000     -2.841040000000000     -2.832910000000000
C       1.345890000000000     -1.694070000000000     -2.372500000000000
N       1.273980000000000     -0.702440000000000     -3.369820000000000
C       1.999440000000000     -1.418030000000000     -1.034700000000000
N       1.122410000000000     -1.469760000000000      0.149800000000000
C       0.713570000000000     -2.701740000000000      0.837100000000000
H      -0.097170000000000     -3.346730000000000     -4.784070000000000
H       0.424460000000000     -0.833910000000000     -5.392920000000000
H       0.779590000000000     -3.784060000000000     -2.315460000000000
H       2.364620000000000     -0.369290000000000     -1.082970000000000
H       2.896970000000000     -2.045880000000000     -0.898340000000000
C       1.773230000000000     -3.796150000000000      0.688660000000000
C       0.568090000000000     -2.361500000000000      2.333550000000000
C      -0.668850000000000     -3.166010000000000      0.332630000000000
H       2.747810000000000     -3.416780000000000      1.067410000000000
H       1.487590000000000     -4.696250000000000      1.267930000000000
H       1.892030000000000     -4.085250000000000     -0.371690000000000
H      -0.180830000000000     -1.556960000000000      2.476990000000000
H       0.234280000000000     -3.246630000000000      2.916640000000000
H       1.530780000000000     -2.001370000000000      2.754890000000000
H      -1.448380000000000     -2.399820000000000      0.541850000000000
H      -0.681830000000000     -3.348030000000000     -0.750970000000000
H      -0.971020000000000     -4.105050000000000      0.843150000000000
C      -1.373370000000000      1.029250000000000     -2.560690000000000
C       0.651030000000000      2.111430000000000     -2.010790000000000
O      -0.496330000000000      1.439300000000000     -1.529950000000000
C      -2.001900000000000     -0.320940000000000     -2.207370000000000
C       0.328220000000000      3.538720000000000     -2.400030000000000
H      -2.184200000000000      1.779780000000000     -2.649720000000000
H      -0.872030000000000      0.917850000000000     -3.546180000000000
H       1.407760000000000      2.120530000000000     -1.201390000000000
H       1.144250000000000      1.595450000000000     -2.850420000000000
H      -0.124990000000000      4.070200000000000     -1.538620000000000
H       1.264410000000000      4.050650000000000     -2.704260000000000
H      -0.378720000000000      3.535760000000000     -3.254090000000000
H      -1.233340000000000     -1.109450000000000     -2.114960000000000
H      -2.551320000000000     -0.268470000000000     -1.246040000000000
H      -2.710430000000000     -0.623080000000000     -3.004760000000000
Na     -9.760059999999999     -6.830090000000000     -3.817610000000000
C      -8.087650000000000     -7.672940000000000     -1.232340000000000
C      -9.824320000000000     -6.307150000000000     -0.443810000000000
O      -8.919870000000000     -6.561420000000000     -1.501850000000000
C      -8.732670000000001     -8.965710000000000     -1.721840000000000
C      -9.223000000000001     -5.343840000000000      0.576490000000000
H      -7.135850000000000     -7.527340000000000     -1.785930000000000
H      -7.809990000000000     -7.751250000000000     -0.157170000000000
H     -10.730490000000000     -5.835560000000000     -0.880380000000000
H     -10.170760000000000     -7.237950000000000      0.057670000000000
H      -8.957830000000000     -4.380950000000000      0.092400000000000
H      -9.966200000000001     -5.144180000000000      1.376710000000000
H      -8.312920000000000     -5.779390000000000      1.037880000000000
H      -8.935770000000000     -8.904299999999999     -2.811490000000000
H      -8.045760000000000     -9.816689999999999     -1.533320000000000
H      -9.685430000000000     -9.154510000000000     -1.186660000000000
C     -12.581460000000000     -8.292410000000000     -2.720720000000000
C     -12.694950000000000     -7.819320000000000     -5.054760000000000
O     -12.001540000000000     -7.634400000000000     -3.833080000000000
C     -12.603770000000001     -9.815820000000000     -2.848530000000000
C     -14.108070000000000     -7.237060000000000     -5.048780000000000
H     -11.939439999999999     -8.054670000000000     -1.846770000000000
H     -13.581840000000000     -7.881580000000000     -2.473920000000000
H     -12.122170000000001     -7.263790000000000     -5.828150000000000
H     -12.682980000000001     -8.879149999999999     -5.383320000000000
H     -14.078790000000000     -6.171850000000000     -4.736910000000000
H     -14.535439999999999     -7.302540000000000     -6.071220000000000
H     -14.770860000000001     -7.809110000000000     -4.368680000000000
H     -11.584000000000000    -10.196590000000000     -3.067050000000000
H     -12.953650000000000    -10.256259999999999     -1.892490000000000
H     -13.304660000000000    -10.139830000000000     -3.644000000000000
Na     -7.858210000000000     -4.474780000000000     -1.996660000000000
C      -8.173220000000001     -4.722920000000000     -5.298150000000000
C      -9.963900000000001     -3.570840000000000     -4.325960000000000
O      -8.973150000000000     -4.562120000000000     -4.145040000000000
C      -6.926730000000000     -5.513760000000000     -4.920780000000000
C     -11.159230000000001     -4.096080000000000     -5.118620000000000
H      -8.726080000000000     -5.301470000000000     -6.068870000000000
H      -7.833560000000000     -3.747680000000000     -5.713810000000000
H     -10.328010000000001     -3.283800000000000     -3.316170000000000
H      -9.552989999999999     -2.641640000000000     -4.778940000000000
H     -11.589200000000000     -4.986590000000000     -4.615620000000000
H     -11.938960000000000     -3.307880000000000     -5.175190000000000
H     -10.860749999999999     -4.365880000000000     -6.152090000000000
H      -7.211080000000000     -6.499460000000000     -4.493980000000000
H      -6.297700000000000     -5.680340000000000     -5.820390000000000
H      -6.332060000000000     -4.954900000000000     -4.168310000000000
C      -5.540490000000000     -2.131980000000000     -2.357290000000000
C      -4.605480000000000     -3.984180000000000     -1.329390000000000
O      -5.750600000000000     -3.465170000000000     -1.960740000000000
C      -6.820830000000000     -1.622620000000000     -3.005880000000000
C      -4.888630000000000     -5.433810000000000     -0.957900000000000
H      -5.316990000000000     -1.485180000000000     -1.478850000000000
H      -4.725740000000000     -2.071830000000000     -3.112310000000000
H      -3.730550000000000     -3.968930000000000     -2.017840000000000
H      -4.381310000000000     -3.423510000000000     -0.394010000000000
H      -5.116460000000000     -6.020620000000000     -1.873600000000000
H      -4.006320000000000     -5.880100000000000     -0.454270000000000
H      -5.762240000000000     -5.488160000000000     -0.272390000000000
H      -7.662470000000000     -1.671580000000000     -2.281560000000000
H      -6.690950000000000     -0.572290000000000     -3.339230000000000
H      -7.072130000000000     -2.249270000000000     -3.886620000000000
Mg    -15.733850000000000     -5.911680000000000      3.558250000000000
H     -17.684500000000000     -7.831560000000000      2.137660000000000
C     -15.767970000000000     -8.773230000000000      1.667330000000000
C     -16.649840000000001     -7.552170000000000      1.850640000000000
C     -16.310659999999999     -9.630860000000000      0.527970000000000
H     -14.731820000000001     -8.441970000000000      1.437170000000000
H     -15.752829999999999     -9.353030000000000      2.616250000000000
H     -17.350660000000001     -9.943730000000000      0.766450000000000
H     -16.320080000000001     -9.032460000000000     -0.409360000000000
C     -15.455859999999999    -10.871390000000000      0.316800000000000
H     -16.645109999999999     -6.907050000000000      0.947270000000000
H     -14.414970000000000    -10.580730000000001      0.063800000000000
H     -15.449870000000001    -11.494520000000000      1.236160000000000
H     -15.878690000000001    -11.466070000000000     -0.519350000000000
C     -17.936830000000000     -4.038860000000000      4.855930000000000
C     -17.896820000000002     -3.182830000000000      5.945550000000000
C     -16.617349999999998     -3.266950000000000      6.473120000000000
C     -15.936680000000001     -4.177070000000000      5.697380000000000
N     -16.742390000000000     -4.627030000000000      4.718910000000000
C     -14.501370000000000     -4.642690000000000      5.847840000000000
N     -14.227600000000001     -5.754040000000000      4.912560000000000
C     -12.909620000000000     -6.410860000000000      4.866370000000000
H     -18.704519999999999     -2.565630000000000      6.311610000000000
H     -18.788380000000000     -4.211460000000000      4.207280000000000
H     -16.229790000000001     -2.731910000000000      7.330930000000000
H     -14.356570000000000     -4.991940000000000      6.888310000000000
H     -13.840080000000000     -3.776880000000000      5.637510000000000
C     -12.637860000000000     -7.125170000000000      6.204080000000000
C     -12.920850000000000     -7.465050000000000      3.744430000000000
C     -11.799590000000000     -5.386400000000000      4.571920000000000
H     -13.436719999999999     -7.871570000000000      6.409010000000000
H     -11.661379999999999     -7.653920000000000      6.177440000000000
H     -12.607820000000000     -6.405360000000000      7.046780000000000
H     -13.105910000000000     -6.988450000000000      2.758110000000000
H     -11.943429999999999     -7.995000000000000      3.694610000000000
H     -13.714110000000000     -8.222280000000000      3.923500000000000
H     -11.997940000000000     -4.869880000000000      3.608120000000000
H     -11.734710000000000     -4.626570000000000      5.377340000000000
H     -10.811750000000000     -5.891160000000000      4.506000000000000

-C 0
6-31g(d,p)
****
-H 0
6-31g(d,p)
****
-Mg 0
6-31g(d,p)
****
-N 0
6-31+g(d,p)
****
-Na 0
6-31g(d,p)
****
-O 0
6-31+g(d,p)
****


