%chk=lowest10_c1_a2_speciation0_speciationDFT0_speciationDFT1_rank05_E178.49.chk
%nprocshared=20
%mem=40GB
#p opt=loose PM7/gen scf=xqc 

lowest10_c1_a2_speciation0_speciationDFT0_speciationDFT1_rank05_E178.49 DFT input

0 1
Mg      0.480740000000000      0.301880000000000     -0.398790000000000
H       1.021090000000000      3.145880000000000      0.379420000000000
C      -1.146840000000000      3.245600000000000      0.068290000000000
C       0.240660000000000      2.771370000000000     -0.313990000000000
C      -1.205170000000000      4.764100000000000     -0.039990000000000
H      -1.891750000000000      2.781900000000000     -0.614750000000000
H      -1.367900000000000      2.918940000000000      1.108340000000000
H      -0.445790000000000      5.207810000000000      0.640220000000000
H      -0.972900000000000      5.064390000000000     -1.085260000000000
C      -2.581080000000000      5.291460000000000      0.335870000000000
H       0.483410000000000      3.001420000000000     -1.372500000000000
H      -3.352130000000000      4.871860000000000     -0.344690000000000
H      -2.824320000000000      5.015620000000000      1.383900000000000
H      -2.581650000000000      6.397160000000000      0.243960000000000
C       3.441550000000000     -0.768320000000000     -0.009540000000000
C       3.929550000000000     -2.047130000000000      0.208000000000000
C       2.833000000000000     -2.894210000000000      0.247030000000000
C       1.725700000000000     -2.100070000000000      0.065170000000000
N       2.104170000000000     -0.823010000000000     -0.092930000000000
C       0.274010000000000     -2.535110000000000      0.017320000000000
N      -0.614180000000000     -1.355510000000000     -0.003640000000000
C      -2.079870000000000     -1.512650000000000     -0.010610000000000
H       4.965600000000000     -2.333350000000000      0.319870000000000
H       4.030930000000000      0.136180000000000     -0.104810000000000
H       2.837240000000000     -3.964790000000000      0.396950000000000
H       0.062830000000000     -3.140250000000000      0.917700000000000
H       0.139120000000000     -3.141750000000000     -0.901390000000000
C      -2.535420000000000     -2.148510000000000      1.316600000000000
C      -2.733700000000000     -0.124220000000000     -0.136020000000000
C      -2.529790000000000     -2.379740000000000     -1.200000000000000
H      -2.224390000000000     -1.511220000000000      2.173600000000000
H      -3.639630000000000     -2.261530000000000      1.341300000000000
H      -2.094140000000000     -3.155890000000000      1.454030000000000
H      -2.443100000000000      0.364470000000000     -1.090380000000000
H      -3.843440000000000     -0.211910000000000     -0.117170000000000
H      -2.427570000000000      0.533510000000000      0.705220000000000
H      -2.192670000000000     -1.926090000000000     -2.157000000000000
H      -2.113990000000000     -3.405200000000000     -1.125180000000000
H      -3.637230000000000     -2.468280000000000     -1.220380000000000
Na      3.381320000000000    -10.995410000000000      5.694800000000000
C       2.487350000000000    -14.062740000000000      6.321230000000000
C       1.045790000000000    -12.583390000000000      7.341900000000000
O       2.402440000000000    -12.922770000000000      7.149480000000000
C       3.951810000000000    -14.427790000000000      6.122540000000000
C       0.960950000000000    -11.345689999999999      8.223890000000001
H       1.981650000000000    -14.934870000000000      6.795060000000000
H       2.049970000000000    -13.855449999999999      5.318060000000000
H       0.555820000000000    -12.341510000000000      6.371170000000000
H       0.503260000000000    -13.407460000000000      7.859060000000000
H       1.481060000000000    -10.492850000000001      7.737950000000000
H      -0.103340000000000    -11.071759999999999      8.384690000000001
H       1.432670000000000    -11.546480000000001      9.209479999999999
H       4.426070000000000    -14.653680000000000      7.101250000000000
H       4.030280000000000    -15.323850000000000      5.470860000000000
H       4.494080000000000    -13.586090000000000      5.641680000000000
Na      3.170630000000000    -13.808100000000000      9.511720000000000
Mg      1.873940000000000     -6.172280000000000      6.497190000000000
H       0.820180000000000     -3.901590000000000      8.419430000000000
C       1.422170000000000     -2.675370000000000      6.705850000000000
C       1.589280000000000     -3.877170000000000      7.621030000000000
C       0.051880000000000     -2.635880000000000      6.014860000000000
H       1.541860000000000     -1.759690000000000      7.321680000000000
H       2.222900000000000     -2.686320000000000      5.936090000000000
H      -0.758450000000000     -2.614540000000000      6.775820000000000
H       0.001690000000000     -1.696850000000000      5.424400000000000
C      -0.181000000000000     -3.806400000000000      5.057010000000000
H       2.605750000000000     -3.883940000000000      8.070510000000001
H      -0.229200000000000     -4.766780000000000      5.609000000000000
H      -1.148160000000000     -3.658940000000000      4.529340000000000
H       0.627580000000000     -3.857400000000000      4.296730000000000
C      -0.832760000000000     -7.832970000000000      6.383860000000000
C      -1.241000000000000     -8.873370000000000      5.565190000000000
C      -0.203160000000000     -9.122150000000000      4.679930000000000
C       0.783770000000000     -8.210390000000000      4.982330000000000
N       0.401290000000000     -7.451390000000000      6.018360000000000
C       2.129040000000000     -8.036870000000000      4.303440000000000
N       2.766580000000000     -6.788970000000000      4.774010000000000
C       4.068330000000000     -6.353080000000000      4.238190000000000
H      -2.187100000000000     -9.395420000000000      5.608780000000000
H      -1.400540000000000     -7.390470000000000      7.192190000000000
H      -0.177280000000000     -9.869510000000000      3.898800000000000
H       2.751870000000000     -8.920650000000000      4.547370000000000
H       1.963340000000000     -7.975640000000000      3.211650000000000
C       3.928770000000000     -6.027730000000000      2.738110000000000
C       4.497160000000000     -5.071250000000000      4.974370000000000
C       5.142010000000000     -7.434720000000000      4.451630000000000
H       3.155250000000000     -5.242730000000000      2.588880000000000
H       4.890150000000000     -5.657740000000000      2.322460000000000
H       3.634750000000000     -6.923320000000000      2.154520000000000
H       4.615990000000000     -5.261500000000000      6.062470000000000
H       5.467820000000000     -4.697950000000000      4.578090000000000
H       3.739600000000000     -4.270410000000000      4.839970000000000
H       5.244490000000000     -7.669820000000000      5.532640000000000
H       4.883860000000000     -8.365930000000001      3.906690000000000
H       6.125770000000000     -7.085250000000000      4.070080000000000

-C 0
6-31g(d,p)
****
-H 0
6-31g(d,p)
****
-Mg 0
6-31g(d,p)
****
-N 0
6-31+g(d,p)
****
-Na 0
6-31g(d,p)
****
-O 0
6-31+g(d,p)
****


