%chk=lowest10_c1_a2_speciation0_speciationDFT2_speciationDFT2_rank10_E180.46.chk
%nprocshared=20
%mem=40GB
#p opt=loose PM7/gen scf=xqc 

lowest10_c1_a2_speciation0_speciationDFT2_speciationDFT2_rank10_E180.46 DFT input

0 1
Mg      0.264530000000000      0.972750000000000      0.053300000000000
H       1.617450000000000      1.710540000000000     -2.537260000000000
C       3.331420000000000      1.691220000000000     -1.152800000000000
C       1.894790000000000      2.039600000000000     -1.515220000000000
C       3.601580000000000      0.178430000000000     -1.078660000000000
H       4.004980000000000      2.167710000000000     -1.894020000000000
H       3.547590000000000      2.118390000000000     -0.149550000000000
H       4.675850000000000      0.040730000000000     -0.827160000000000
H       2.998790000000000     -0.281470000000000     -0.266810000000000
C       3.310260000000000     -0.561330000000000     -2.382820000000000
H       1.691500000000000      3.122890000000000     -1.391250000000000
H       2.225040000000000     -0.532530000000000     -2.613980000000000
H       3.882910000000000     -0.111230000000000     -3.219950000000000
H       3.606250000000000     -1.626830000000000     -2.276790000000000
C       1.608210000000000     -0.851190000000000      2.280980000000000
C       1.077550000000000     -1.840320000000000      3.093570000000000
C      -0.264270000000000     -1.953600000000000      2.764400000000000
C      -0.492100000000000     -1.044160000000000      1.758480000000000
N       0.640290000000000     -0.380930000000000      1.480470000000000
C      -1.798580000000000     -0.759030000000000      1.044650000000000
N      -1.554490000000000      0.092220000000000     -0.137460000000000
C      -2.664890000000000      0.482020000000000     -1.025880000000000
H       1.604650000000000     -2.410830000000000      3.845020000000000
H       2.633400000000000     -0.500180000000000      2.284430000000000
H      -0.990550000000000     -2.626620000000000      3.199380000000000
H      -2.468220000000000     -0.249180000000000      1.767880000000000
H      -2.238120000000000     -1.719960000000000      0.721170000000000
C      -3.783380000000000      1.188840000000000     -0.238740000000000
C      -2.127700000000000      1.445890000000000     -2.100480000000000
C      -3.221070000000000     -0.771390000000000     -1.728470000000000
H      -3.384360000000000      2.090590000000000      0.270570000000000
H      -4.601740000000000      1.502090000000000     -0.922570000000000
H      -4.225660000000000      0.513610000000000      0.522140000000000
H      -1.309140000000000      0.971660000000000     -2.683710000000000
H      -2.937670000000000      1.730010000000000     -2.809580000000000
H      -1.732820000000000      2.375130000000000     -1.636780000000000
H      -2.415540000000000     -1.273570000000000     -2.308290000000000
H      -3.627540000000000     -1.497850000000000     -0.996550000000000
H      -4.043920000000000     -0.503540000000000     -2.424030000000000
Na      3.519380000000000      1.161550000000000      7.600440000000000
C       0.308730000000000      1.646400000000000      8.085850000000001
C       1.435450000000000      1.625810000000000     10.095580000000000
O       1.231870000000000      0.934170000000000      8.881890000000000
C       0.086290000000000      0.891310000000000      6.782930000000000
C       2.443120000000000      0.861720000000000     10.943490000000001
H      -0.675310000000000      1.732290000000000      8.600960000000001
H       0.705070000000000      2.654980000000000      7.829640000000000
H       1.852000000000000      2.641660000000000      9.907570000000000
H       0.486370000000000      1.694110000000000     10.674500000000000
H       3.411900000000000      0.780020000000000     10.406230000000001
H       2.609430000000000      1.396950000000000     11.902500000000000
H       2.062940000000000     -0.158450000000000     11.163750000000000
H      -0.317680000000000     -0.122050000000000      6.992340000000000
H      -0.639310000000000      1.443610000000000      6.148680000000000
H       1.044560000000000      0.792040000000000      6.229770000000000
Na     -0.085580000000000     -1.227210000000000      9.612730000000001
Mg     -2.856710000000000      4.246690000000000      5.025510000000000
H      -4.348680000000000      5.245460000000000      2.525790000000000
C      -5.543550000000000      3.476760000000000      3.037110000000000
C      -4.213320000000000      4.193550000000000      2.849090000000000
C      -6.397430000000000      4.063280000000000      4.173580000000000
H      -6.103750000000000      3.507250000000000      2.079410000000000
H      -5.331620000000000      2.414560000000000      3.287360000000000
H      -7.340590000000000      3.476880000000000      4.225070000000000
H      -5.869530000000000      3.952110000000000      5.144540000000000
C      -6.754820000000000      5.535660000000000      3.974700000000000
H      -3.574890000000000      3.662440000000000      2.115480000000000
H      -5.845010000000000      6.169860000000000      4.016710000000000
H      -7.267490000000000      5.683090000000000      3.001340000000000
H      -7.433270000000000      5.863160000000000      4.790830000000000
C      -4.347840000000000      2.909490000000000      7.490030000000000
C      -4.150000000000000      3.021620000000000      8.856330000000000
C      -3.102520000000000      3.911200000000000      9.041470000000000
C      -2.720380000000000      4.318870000000000      7.782700000000000
N      -3.465790000000000      3.699450000000000      6.857360000000000
C      -1.624210000000000      5.301750000000000      7.416680000000000
N      -1.715330000000000      5.636910000000000      5.979460000000000
C      -0.769560000000000      6.581960000000000      5.359640000000000
H      -4.703440000000000      2.510140000000000      9.631970000000001
H      -5.084640000000000      2.288880000000000      6.996380000000000
H      -2.678710000000000      4.232720000000000      9.982830000000000
H      -0.650380000000000      4.829880000000000      7.659220000000000
H      -1.764300000000000      6.221300000000000      8.015670000000000
C       0.684860000000000      6.117320000000000      5.554470000000000
C      -1.071290000000000      6.658390000000000      3.851600000000000
C      -0.966710000000000      7.984170000000000      5.968090000000000
H       0.830180000000000      5.106240000000000      5.117620000000000
H       1.386420000000000      6.822370000000000      5.058080000000000
H       0.952870000000000      6.083690000000000      6.630390000000000
H      -2.118830000000000      6.985280000000000      3.674640000000000
H      -0.392540000000000      7.386050000000000      3.353000000000000
H      -0.930140000000000      5.666880000000000      3.370580000000000
H      -2.016570000000000      8.321149999999999      5.821380000000000
H      -0.748040000000000      7.987260000000000      7.055150000000000
H      -0.290550000000000      8.722560000000000      5.486990000000000

-C 0
6-31g(d,p)
****
-H 0
6-31g(d,p)
****
-Mg 0
6-31g(d,p)
****
-N 0
6-31+g(d,p)
****
-Na 0
6-31g(d,p)
****
-O 0
6-31+g(d,p)
****


