%chk=lowest10_c1_a2_speciation7_speciationDFT0_speciationDFT38_rank02_E219.93.chk
%nprocshared=20
%mem=40GB
#p opt=loose PM7/gen scf=xqc 

lowest10_c1_a2_speciation7_speciationDFT0_speciationDFT38_rank02_E219.93 DFT input

0 1
Mg     -0.094810000000000      0.826240000000000     -0.539050000000000
C      -1.696280000000000     -1.396440000000000      1.316800000000000
C      -1.229290000000000     -2.315410000000000     -0.842870000000000
O      -1.310780000000000     -1.165640000000000     -0.027290000000000
C      -0.922900000000000     -2.501550000000000      2.039300000000000
C      -2.590180000000000     -2.944200000000000     -1.103060000000000
H      -1.474320000000000     -0.458190000000000      1.862490000000000
H      -2.791680000000000     -1.550550000000000      1.392890000000000
H      -0.826050000000000     -1.985010000000000     -1.819350000000000
H      -0.486630000000000     -3.046610000000000     -0.467020000000000
H      -2.474960000000000     -3.762490000000000     -1.843840000000000
H      -3.289810000000000     -2.183960000000000     -1.508080000000000
H      -3.004790000000000     -3.364410000000000     -0.165900000000000
H       0.164550000000000     -2.338990000000000      1.949650000000000
H      -1.187550000000000     -3.496440000000000      1.630090000000000
H      -1.180690000000000     -2.488680000000000      3.117240000000000
H      -2.202590000000000      1.746430000000000     -1.902850000000000
C      -0.609370000000000      1.715730000000000     -3.408600000000000
C      -1.125960000000000      1.996760000000000     -1.987580000000000
C      -0.663720000000000      0.239250000000000     -3.848970000000000
H      -1.196070000000000      2.329690000000000     -4.123270000000000
H       0.453780000000000      2.034260000000000     -3.461600000000000
H      -0.265370000000000      0.170790000000000     -4.886410000000000
H      -0.003420000000000     -0.370910000000000     -3.200120000000000
C      -2.072810000000000     -0.353200000000000     -3.850720000000000
H      -0.978400000000000      3.064400000000000     -1.733680000000000
H      -2.494890000000000     -0.356390000000000     -2.827330000000000
H      -2.739850000000000      0.226660000000000     -4.521630000000000
H      -2.034870000000000     -1.404920000000000     -4.210770000000000
C       2.278040000000000     -2.306320000000000     -0.891500000000000
C       2.427900000000000     -1.167830000000000     -1.650010000000000
C       2.321550000000000     -0.085040000000000     -0.795620000000000
C       2.088860000000000     -0.546210000000000      0.437120000000000
N       2.077810000000000     -1.955960000000000      0.451560000000000
C       1.826000000000000      0.301100000000000      1.653870000000000
N       0.626640000000000      1.115600000000000      1.416520000000000
C       0.247530000000000      2.145840000000000      2.413830000000000
H       2.577460000000000     -1.138790000000000     -2.720830000000000
H       2.294000000000000     -3.321170000000000     -1.263660000000000
H       2.364850000000000      0.958170000000000     -1.083970000000000
H       2.713440000000000      0.933360000000000      1.844830000000000
H       1.652410000000000     -0.372210000000000      2.519380000000000
C       1.294310000000000      3.276560000000000      2.456570000000000
C      -1.110360000000000      2.745490000000000      2.012640000000000
C       0.108020000000000      1.523570000000000      3.823980000000000
H       1.390980000000000      3.755070000000000      1.459780000000000
H       0.998630000000000      4.053190000000000      3.196020000000000
H       2.288930000000000      2.898450000000000      2.768060000000000
H      -1.900400000000000      1.965320000000000      2.004600000000000
H      -1.416770000000000      3.538510000000000      2.731710000000000
H      -1.051710000000000      3.197850000000000      1.000610000000000
H      -0.644850000000000      0.706810000000000      3.821990000000000
H       1.073150000000000      1.110030000000000      4.183630000000000
H      -0.217330000000000      2.288400000000000      4.563080000000000
Na     -3.350060000000000     -8.650510000000001      1.091910000000000
C      -1.839890000000000     -7.469750000000000      3.648990000000000
C      -1.115700000000000     -9.695340000000000      3.488840000000000
O      -2.188140000000000     -8.793430000000001      3.291290000000000
C      -1.247420000000000     -6.723720000000000      2.457980000000000
C      -1.146540000000000    -10.289310000000000      4.894770000000000
H      -2.768070000000000     -6.946000000000000      3.961630000000000
H      -1.152500000000000     -7.426610000000000      4.523740000000000
H      -1.229830000000000    -10.522460000000001      2.755950000000000
H      -0.124110000000000     -9.234059999999999      3.283450000000000
H      -2.102250000000000    -10.825270000000000      5.069920000000000
H      -0.311960000000000    -11.011920000000000      5.007300000000000
H      -1.031970000000000     -9.493280000000000      5.659110000000000
H      -1.971210000000000     -6.706790000000000      1.616420000000000
H      -1.017980000000000     -5.680110000000000      2.754850000000000
H      -0.309810000000000     -7.209400000000000      2.119270000000000
C      -0.466300000000000     -9.319039999999999     -0.531430000000000
C      -2.336760000000000     -9.373530000000001     -2.007410000000000
O      -1.876310000000000     -9.324090000000000     -0.668200000000000
C       0.208780000000000     -8.091260000000000     -1.144810000000000
C      -1.949720000000000    -10.658420000000000     -2.739250000000000
H      -0.257160000000000     -9.287380000000001      0.558370000000000
H      -0.013820000000000    -10.265490000000000     -0.892000000000000
H      -3.446710000000000     -9.354030000000000     -1.959110000000000
H      -2.050720000000000     -8.466680000000000     -2.579170000000000
H      -2.275240000000000    -11.540960000000000     -2.150430000000000
H      -2.449760000000000    -10.680920000000000     -3.730040000000000
H      -0.855740000000000    -10.704980000000001     -2.913090000000000
H      -0.245850000000000     -7.162270000000000     -0.740650000000000
H       1.289200000000000     -8.104080000000000     -0.889720000000000
H       0.125390000000000     -8.099380000000000     -2.250300000000000
Na     -4.086280000000000     -9.784490000000000      4.376490000000000
C      -6.212960000000000     -9.203290000000001      1.873150000000000
C      -5.225140000000000    -11.320499999999999      1.729230000000000
O      -5.075020000000000     -9.986090000000001      2.170140000000000
C      -6.143160000000000     -7.914010000000000      2.682040000000000
C      -4.963090000000000    -11.458320000000001      0.230960000000000
H      -6.219890000000000     -8.932040000000001      0.795720000000000
H      -7.160850000000000     -9.717000000000001      2.150410000000000
H      -4.464450000000000    -11.929819999999999      2.262980000000000
H      -6.212640000000000    -11.749359999999999      2.009710000000000
H      -3.950760000000000    -11.077070000000001     -0.015440000000000
H      -5.020890000000000    -12.529010000000000     -0.056850000000000
H      -5.719610000000000    -10.897860000000000     -0.355340000000000
H      -5.210390000000000     -7.359650000000000      2.442930000000000
H      -7.014930000000000     -7.269470000000000      2.442490000000000
H      -6.156430000000000     -8.142730000000000      3.768130000000000
C      -6.624720000000000    -10.241560000000000      6.461340000000000
C      -5.408200000000000     -8.391819999999999      7.137390000000000
O      -5.577750000000000     -9.361110000000000      6.131870000000000
C      -6.737240000000000    -11.280830000000000      5.354020000000000
C      -4.284810000000000     -7.457100000000000      6.709590000000000
H      -6.411240000000000    -10.775810000000000      7.414640000000000
H      -7.592890000000000     -9.695670000000000      6.522140000000000
H      -6.332760000000000     -7.784370000000000      7.262530000000000
H      -5.114760000000000     -8.867889999999999      8.100099999999999
H      -4.548580000000000     -6.965170000000000      5.748930000000000
H      -4.121790000000000     -6.676330000000000      7.481210000000000
H      -3.342970000000000     -8.031250000000000      6.571640000000000
H      -5.785020000000000    -11.846869999999999      5.263090000000000
H      -7.560370000000000    -11.990900000000000      5.576510000000000
H      -6.948020000000000    -10.779480000000000      4.386740000000000
Mg     -2.368480000000000    -15.149410000000000      1.338980000000000
H      -5.055820000000000    -16.267420000000001      2.605180000000000
C      -4.375080000000000    -18.064370000000000      1.554210000000000
C      -4.508480000000000    -16.555599999999998      1.684720000000000
C      -3.634000000000000    -18.700720000000000      2.738160000000000
H      -5.396980000000000    -18.493829999999999      1.495310000000000
H      -3.839500000000000    -18.305550000000000      0.611420000000000
H      -4.166320000000000    -18.473530000000000      3.687380000000000
H      -3.641570000000000    -19.801089999999999      2.588250000000000
C      -2.176110000000000    -18.250610000000002      2.852410000000000
H      -5.017170000000000    -16.132819999999999      0.791780000000000
H      -2.112210000000000    -17.168150000000001      3.083420000000000
H      -1.684060000000000    -18.812090000000001      3.675680000000000
H      -1.627490000000000    -18.459550000000000      1.909130000000000
C      -1.007100000000000    -14.309590000000000      4.083910000000000
C       0.291620000000000    -13.939670000000000      4.394220000000000
C       1.021270000000000    -14.002920000000000      3.216920000000000
C       0.143700000000000    -14.428470000000001      2.244730000000000
N      -1.077190000000000    -14.594540000000000      2.774870000000000
C       0.430900000000000    -14.681960000000000      0.777380000000000
N      -0.723070000000000    -15.366740000000000      0.157090000000000
C      -0.694340000000000    -15.775190000000000     -1.258220000000000
H       0.665630000000000    -13.652559999999999      5.367260000000000
H      -1.841500000000000    -14.362560000000000      4.771770000000000
H       2.071830000000000    -13.779030000000001      3.088260000000000
H       0.626010000000000    -13.703120000000000      0.291940000000000
H       1.324400000000000    -15.330470000000000      0.704330000000000
C       0.393190000000000    -16.847300000000001     -1.468510000000000
C      -2.058610000000000    -16.390779999999999     -1.616630000000000
C      -0.434980000000000    -14.566860000000000     -2.174640000000000
H       0.201860000000000    -17.722020000000001     -0.808420000000000
H       0.402340000000000    -17.198619999999998     -2.522350000000000
H       1.402940000000000    -16.451000000000001     -1.239170000000000
H      -2.874060000000000    -15.648110000000001     -1.482960000000000
H      -2.068590000000000    -16.732720000000000     -2.675570000000000
H      -2.274600000000000    -17.267170000000000     -0.969510000000000
H      -1.218990000000000    -13.795360000000001     -2.024790000000000
H       0.556320000000000    -14.114070000000000     -1.967200000000000
H      -0.444360000000000    -14.879569999999999     -3.241210000000000

-C 0
6-31g(d,p)
****
-H 0
6-31g(d,p)
****
-Mg 0
6-31g(d,p)
****
-N 0
6-31+g(d,p)
****
-Na 0
6-31g(d,p)
****
-O 0
6-31+g(d,p)
****


