%chk=lowest10_c1_a2_speciation0_speciationDFT0_speciationDFT1_rank09_E178.72.chk
%nprocshared=20
%mem=40GB
#p opt=loose PM7/gen scf=xqc 

lowest10_c1_a2_speciation0_speciationDFT0_speciationDFT1_rank09_E178.72 DFT input

0 1
Mg     -0.832890000000000     -0.005300000000000      0.214620000000000
H      -1.583900000000000      2.473820000000000      1.723050000000000
C       0.156660000000000      1.833190000000000      2.892170000000000
C      -1.120320000000000      1.550690000000000      2.126940000000000
C      -0.167910000000000      2.688510000000000      4.110340000000000
H       0.613010000000000      0.869750000000000      3.208470000000000
H       0.871140000000000      2.361210000000000      2.222810000000000
H      -0.633860000000000      3.640420000000000      3.774080000000000
H      -0.888790000000000      2.142600000000000      4.757650000000000
C       1.084600000000000      3.002190000000000      4.913610000000000
H      -1.840900000000000      0.953130000000000      2.723550000000000
H       1.555450000000000      2.062610000000000      5.273100000000000
H       1.810880000000000      3.563190000000000      4.287950000000000
H       0.805900000000000      3.624320000000000      5.789000000000000
C      -3.023610000000000      0.259480000000000     -2.064470000000000
C      -3.079510000000000     -0.270490000000000     -3.343750000000000
C      -1.919510000000000     -1.007790000000000     -3.524160000000000
C      -1.201510000000000     -0.888400000000000     -2.357780000000000
N      -1.877710000000000     -0.127100000000000     -1.484710000000000
C       0.142320000000000     -1.510630000000000     -2.031480000000000
N       0.655430000000000     -0.981160000000000     -0.751920000000000
C       1.968720000000000     -1.402500000000000     -0.231310000000000
H      -3.875530000000000     -0.140530000000000     -4.063070000000000
H      -3.776330000000000      0.881100000000000     -1.593870000000000
H      -1.626070000000000     -1.562270000000000     -4.404980000000000
H       0.848030000000000     -1.259600000000000     -2.844030000000000
H      -0.006010000000000     -2.608020000000000     -1.968860000000000
C       3.080090000000000     -0.903260000000000     -1.173910000000000
C       2.185690000000000     -0.771350000000000      1.156290000000000
C       2.034340000000000     -2.933480000000000     -0.093020000000000
H       3.041150000000000      0.205150000000000     -1.258850000000000
H       4.081470000000000     -1.194540000000000     -0.793150000000000
H       2.971490000000000     -1.334170000000000     -2.189300000000000
H       1.412510000000000     -1.119450000000000      1.874030000000000
H       3.183910000000000     -1.052400000000000      1.561370000000000
H       2.139800000000000      0.337040000000000      1.096480000000000
H       1.223330000000000     -3.292200000000000      0.575940000000000
H       1.926730000000000     -3.427770000000000     -1.079980000000000
H       3.012190000000000     -3.245040000000000      0.333150000000000
Na      5.543990000000000     -3.600380000000000      5.348730000000000
C       8.628110000000000     -2.985290000000000      6.191640000000000
C       7.203960000000000     -2.463310000000000      7.925900000000000
O       7.451560000000000     -2.290860000000000      6.546900000000000
C       8.893549999999999     -2.790500000000000      4.705380000000000
C       5.926990000000000     -1.724200000000000      8.300170000000000
H       9.506650000000000     -2.586290000000000      6.748270000000000
H       8.512670000000000     -4.077750000000000      6.375630000000000
H       7.056130000000000     -3.539900000000000      8.170830000000000
H       8.034900000000000     -2.035070000000000      8.531739999999999
H       5.067280000000000     -2.129930000000000      7.725470000000000
H       5.724530000000000     -1.850570000000000      9.384910000000000
H       6.034440000000000     -0.640800000000000      8.079000000000001
H       9.026210000000001     -1.711250000000000      4.478590000000000
H       9.817539999999999     -3.334100000000000      4.414650000000000
H       8.042970000000000     -3.185040000000000      4.109890000000000
Na      8.138460000000000      0.247020000000000      6.343690000000000
Mg      0.809110000000000     -3.554780000000000      7.286310000000000
H      -1.484090000000000     -2.125080000000000      8.916630000000000
C      -2.650660000000000     -3.724740000000000      7.977760000000000
C      -1.519780000000000     -2.709510000000000      7.974990000000000
C      -2.547110000000000     -4.731300000000000      9.132050000000000
H      -3.607040000000000     -3.168890000000000      8.069060000000000
H      -2.654890000000000     -4.271780000000000      7.011010000000000
H      -2.552320000000000     -4.196430000000000     10.106690000000000
H      -3.443630000000000     -5.384990000000000      9.087479999999999
C      -1.308200000000000     -5.625680000000000      9.049980000000000
H      -1.615030000000000     -2.025230000000000      7.104430000000000
H      -0.380730000000000     -5.032130000000000      9.178800000000001
H      -1.351630000000000     -6.383830000000000      9.861570000000000
H      -1.273460000000000     -6.158170000000000      8.075500000000000
C       2.671130000000000     -4.205360000000000      9.777630000000000
C       3.784790000000000     -5.019170000000000      9.907150000000000
C       4.006290000000000     -5.601190000000000      8.668250000000000
C       3.007440000000000     -5.134460000000000      7.842810000000000
N       2.220320000000000     -4.283870000000000      8.515620000000000
C       2.773640000000000     -5.473000000000000      6.382860000000000
N       1.456880000000000     -4.953970000000000      5.956290000000000
C       0.956930000000000     -5.184910000000000      4.589440000000000
H       4.372580000000000     -5.170520000000000     10.802220000000000
H       2.226110000000000     -3.596720000000000     10.554230000000000
H       4.793620000000000     -6.294010000000000      8.404600000000000
H       3.593080000000000     -5.018790000000000      5.790750000000000
H       2.787860000000000     -6.573520000000000      6.273690000000000
C       0.730960000000000     -6.693640000000000      4.367810000000000
C      -0.393850000000000     -4.463790000000000      4.432760000000000
C       1.941040000000000     -4.634530000000000      3.542250000000000
H       0.015250000000000     -7.088820000000000      5.122200000000000
H       0.316000000000000     -6.886290000000000      3.355580000000000
H       1.678550000000000     -7.262620000000000      4.454270000000000
H      -0.276510000000000     -3.368700000000000      4.578680000000000
H      -0.814800000000000     -4.636490000000000      3.417090000000000
H      -1.126830000000000     -4.839420000000000      5.177800000000000
H       2.103090000000000     -3.546090000000000      3.696010000000000
H       2.919360000000000     -5.153950000000000      3.602270000000000
H       1.541780000000000     -4.793150000000000      2.517960000000000

-C 0
6-31g(d,p)
****
-H 0
6-31g(d,p)
****
-Mg 0
6-31g(d,p)
****
-N 0
6-31+g(d,p)
****
-Na 0
6-31g(d,p)
****
-O 0
6-31+g(d,p)
****


