%chk=lowest10_c1_a2_speciation7_speciationDFT2_speciationDFT38_rank10_E222.37.chk
%nprocshared=20
%mem=40GB
#p opt=loose PM7/gen scf=xqc 

lowest10_c1_a2_speciation7_speciationDFT2_speciationDFT38_rank10_E222.37 DFT input

0 1
Mg     -0.792020000000000     -0.577140000000000     -0.022130000000000
C       1.435400000000000      0.990230000000000      1.862500000000000
C       2.439760000000000     -0.913710000000000      0.817870000000000
O       1.254050000000000     -0.230730000000000      1.166150000000000
C       2.434510000000000      1.962690000000000      1.231070000000000
C       3.181320000000000     -1.453440000000000      2.032100000000000
H       0.452820000000000      1.501630000000000      1.840440000000000
H       1.667170000000000      0.805460000000000      2.930980000000000
H       2.137630000000000     -1.782860000000000      0.202540000000000
H       3.091140000000000     -0.313250000000000      0.152630000000000
H       4.030650000000000     -2.079680000000000      1.688390000000000
H       2.500090000000000     -2.074080000000000      2.650210000000000
H       3.575920000000000     -0.618680000000000      2.643830000000000
H       2.194070000000000      2.131810000000000      0.167650000000000
H       3.470860000000000      1.580360000000000      1.324420000000000
H       2.377150000000000      2.939470000000000      1.751870000000000
H      -1.472010000000000     -2.482060000000000      1.729070000000000
C      -1.472990000000000     -3.543230000000000     -0.189200000000000
C      -1.796930000000000     -2.317960000000000      0.681910000000000
C       0.026660000000000     -3.870810000000000     -0.332510000000000
H      -1.998450000000000     -4.424450000000000      0.234300000000000
H      -1.866580000000000     -3.356980000000000     -1.211420000000000
H       0.125730000000000     -4.769940000000000     -0.981630000000000
H       0.546680000000000     -3.035140000000000     -0.842960000000000
C       0.721990000000000     -4.175090000000000      0.994320000000000
H      -2.885810000000000     -2.117260000000000      0.665250000000000
H       0.697370000000000     -3.289890000000000      1.658640000000000
H       0.233740000000000     -5.031160000000000      1.504290000000000
H       1.787030000000000     -4.434920000000000      0.806240000000000
C       2.170330000000000     -0.100090000000000     -2.586450000000000
C       1.069520000000000     -0.881140000000000     -2.854940000000000
C      -0.049690000000000     -0.162300000000000     -2.475230000000000
C       0.355570000000000      1.006250000000000     -1.968720000000000
N       1.759050000000000      1.122650000000000     -2.036280000000000
C      -0.539080000000000      2.054100000000000     -1.361350000000000
N      -1.245580000000000      1.469300000000000     -0.213480000000000
C      -2.300870000000000      2.262860000000000      0.462160000000000
H       1.091130000000000     -1.881380000000000     -3.265980000000000
H       3.200840000000000     -0.380430000000000     -2.754290000000000
H      -1.074820000000000     -0.507870000000000     -2.528730000000000
H      -1.246510000000000      2.408270000000000     -2.134640000000000
H       0.093520000000000      2.899150000000000     -1.017320000000000
C      -3.507380000000000      2.476820000000000     -0.473120000000000
C      -2.772910000000000      1.496630000000000      1.708950000000000
C      -1.752590000000000      3.637920000000000      0.913140000000000
H      -3.932720000000000      1.501380000000000     -0.788690000000000
H      -4.301610000000000      3.059900000000000      0.043210000000000
H      -3.223810000000000      3.051380000000000     -1.377970000000000
H      -1.936490000000000      1.352520000000000      2.424840000000000
H      -3.580740000000000      2.057200000000000      2.231390000000000
H      -3.169420000000000      0.499260000000000      1.425380000000000
H      -0.883830000000000      3.512570000000000      1.593770000000000
H      -1.431770000000000      4.249930000000000      0.045440000000000
H      -2.532520000000000      4.217400000000000      1.454550000000000
Na     -2.022190000000000      9.467630000000000     -6.951370000000000
C      -0.347720000000000     12.179990000000000     -7.207450000000000
C      -1.792540000000000     12.182070000000000     -9.055320000000000
O      -1.014160000000000     11.393020000000000     -8.175720000000000
C      -1.215010000000000     12.361510000000001     -5.965820000000000
C      -0.979650000000000     12.615470000000000    -10.272779999999999
H       0.577730000000000     11.642410000000000     -6.910980000000000
H      -0.017210000000000     13.165390000000000     -7.606740000000000
H      -2.643200000000000     11.558859999999999     -9.404700000000000
H      -2.243080000000000     13.067200000000000     -8.553440000000000
H      -0.600790000000000     11.729540000000000    -10.823090000000001
H      -1.625960000000000     13.204240000000000    -10.956700000000000
H      -0.119970000000000     13.246040000000001     -9.965880000000000
H      -1.478550000000000     11.373230000000000     -5.534430000000000
H      -0.656550000000000     12.946170000000000     -5.205540000000000
H      -2.147610000000000     12.906400000000000     -6.217660000000000
C      -4.972620000000000     11.095789999999999     -6.720690000000000
C      -5.168070000000000      8.822710000000001     -6.031210000000000
O      -4.372340000000000      9.814180000000000     -6.657170000000000
C      -5.238610000000000     11.721290000000000     -5.350770000000000
C      -6.468350000000000      8.521670000000000     -6.776920000000000
H      -4.246410000000000     11.757000000000000     -7.238270000000000
H      -5.879390000000000     11.095150000000000     -7.359520000000000
H      -4.568950000000000      7.886990000000000     -6.040220000000000
H      -5.346030000000000      9.048380000000000     -4.959450000000000
H      -6.250560000000000      8.276940000000000     -7.837830000000000
H      -6.970550000000000      7.653170000000000     -6.301740000000000
H      -7.165350000000000      9.382310000000000     -6.726270000000000
H      -4.305740000000000     11.734870000000001     -4.748740000000000
H      -5.593460000000000     12.764130000000000     -5.489490000000000
H      -6.029290000000000     11.167930000000000     -4.805160000000000
Na      0.314620000000000      9.969450000000000     -9.582730000000000
C      -0.244420000000000      7.189210000000000     -7.822120000000000
C      -1.762660000000000      7.451840000000000     -9.583600000000001
O      -0.929800000000000      8.107250000000001     -8.648600000000000
C       0.885140000000000      7.922470000000000     -7.109690000000000
C      -3.076880000000000      6.995430000000000     -8.953569999999999
H      -0.931560000000000      6.783820000000000     -7.048850000000000
H       0.215480000000000      6.360480000000000     -8.406090000000001
H      -2.006480000000000      8.188810000000000    -10.378629999999999
H      -1.244040000000000      6.610840000000000    -10.095060000000000
H      -3.602940000000000      7.860930000000000     -8.500730000000001
H      -3.727320000000000      6.552450000000000     -9.736580000000000
H      -2.895720000000000      6.226840000000000     -8.174840000000000
H       0.479370000000000      8.763540000000001     -6.507610000000000
H       1.421670000000000      7.223760000000000     -6.434530000000000
H       1.606040000000000      8.326040000000001     -7.850990000000000
C       2.951320000000000      8.560150000000000    -11.019349999999999
C       3.650640000000000     10.368700000000000     -9.755240000000001
O       2.561700000000000      9.543860000000000    -10.091740000000000
C       1.727430000000000      7.723110000000000    -11.366050000000000
C       3.172980000000000     11.389880000000000     -8.731690000000000
H       3.328020000000000      9.024680000000000    -11.958570000000000
H       3.717590000000000      7.884580000000000    -10.577270000000000
H       4.470040000000000      9.774190000000001     -9.292000000000000
H       4.019490000000000     10.920800000000000    -10.648970000000000
H       2.797700000000000     10.868410000000001     -7.825200000000000
H       4.008310000000000     12.060449999999999     -8.441649999999999
H       2.349880000000000     12.002230000000001     -9.159820000000000
H       0.937940000000000      8.366800000000000    -11.810680000000000
H       1.998720000000000      6.929490000000000    -12.092580000000000
H       1.324490000000000      7.246630000000000    -10.448420000000000
Mg      1.178410000000000     10.124290000000000     -0.169390000000000
H       0.427310000000000     12.991759999999999      0.681900000000000
C       2.600860000000000     13.191440000000000      0.460110000000000
C       1.359660000000000     12.447649999999999      0.935440000000000
C       2.691520000000000     13.315469999999999     -1.069670000000000
H       2.615430000000000     14.197710000000001      0.928450000000000
H       3.494480000000000     12.628670000000000      0.807180000000000
H       3.625110000000000     13.869970000000000     -1.308720000000000
H       2.761690000000000     12.307610000000000     -1.531070000000000
C       1.513800000000000     14.062260000000000     -1.694530000000000
H       1.397490000000000     12.275740000000001      2.030530000000000
H       0.571540000000000     13.491040000000000     -1.562670000000000
H       1.406470000000000     15.068780000000000     -1.238850000000000
H       1.688940000000000     14.178950000000000     -2.785070000000000
C       3.511480000000000      9.504860000000001     -2.227180000000000
C       3.621330000000000      8.577260000000001     -3.252630000000000
C       2.426810000000000      7.874670000000000     -3.281480000000000
C       1.634060000000000      8.410780000000001     -2.294210000000000
N       2.310500000000000      9.387499999999999     -1.655570000000000
C       0.224320000000000      8.018440000000000     -1.907440000000000
N      -0.331750000000000      9.009390000000000     -0.962320000000000
C      -1.697570000000000      8.871340000000000     -0.428840000000000
H       4.472700000000000      8.427370000000000     -3.899250000000000
H       4.273630000000000     10.215510000000000     -1.923550000000000
H       2.161290000000000      7.069170000000000     -3.956160000000000
H       0.265390000000000      7.006240000000000     -1.452160000000000
H      -0.396700000000000      7.999330000000000     -2.824350000000000
C      -1.877060000000000      7.522500000000000      0.291160000000000
C      -1.946620000000000     10.010500000000000      0.576290000000000
C      -2.717370000000000      9.000970000000001     -1.577580000000000
H      -1.142900000000000      7.423680000000000      1.119180000000000
H      -2.901440000000000      7.441430000000000      0.714930000000000
H      -1.739900000000000      6.676340000000000     -0.411870000000000
H      -1.818390000000000     11.001289999999999      0.088930000000000
H      -2.980800000000000      9.955270000000001      0.983360000000000
H      -1.235000000000000      9.947150000000001      1.427350000000000
H      -2.589720000000000      9.977380000000000     -2.094970000000000
H      -2.589480000000000      8.191170000000000     -2.324290000000000
H      -3.757060000000000      8.941509999999999     -1.191210000000000

-C 0
6-31g(d,p)
****
-H 0
6-31g(d,p)
****
-Mg 0
6-31g(d,p)
****
-N 0
6-31+g(d,p)
****
-Na 0
6-31g(d,p)
****
-O 0
6-31+g(d,p)
****


