%chk=lowest10_c1_a2_speciation0_speciationDFT96_speciationDFT96_rank07_E190.86.chk
%nprocshared=20
%mem=40GB
#p opt=loose PM7/gen scf=xqc 

lowest10_c1_a2_speciation0_speciationDFT96_speciationDFT96_rank07_E190.86 DFT input

0 1
Mg     -0.142150000000000     -0.229830000000000     -0.381690000000000
C      -2.417730000000000      2.045670000000000      1.012040000000000
C      -1.643100000000000      0.393350000000000      2.549180000000000
O      -1.451920000000000      1.055140000000000      1.312890000000000
C      -2.381890000000000      3.243070000000000      1.956690000000000
C      -2.934580000000000     -0.417840000000000      2.615160000000000
H      -2.172120000000000      2.421320000000000     -0.004760000000000
H      -3.439510000000000      1.627250000000000      0.937560000000000
H      -0.813430000000000     -0.334790000000000      2.646400000000000
H      -1.528410000000000      1.080440000000000      3.411830000000000
H      -3.007770000000000     -1.093130000000000      1.737690000000000
H      -2.931330000000000     -1.031420000000000      3.540050000000000
H      -3.818180000000000      0.249260000000000      2.649590000000000
H      -1.359660000000000      3.668600000000000      2.008980000000000
H      -3.074530000000000      4.022590000000000      1.575620000000000
H      -2.716720000000000      2.950830000000000      2.971370000000000
H      -2.132640000000000      0.770240000000000     -2.348990000000000
C      -3.373460000000000     -0.745040000000000     -1.358740000000000
C      -2.063330000000000     -0.258490000000000     -1.939100000000000
C      -4.417430000000000     -0.818350000000000     -2.459940000000000
H      -3.228450000000000     -1.747160000000000     -0.905040000000000
H      -3.703790000000000     -0.046420000000000     -0.565570000000000
H      -4.547570000000000      0.191300000000000     -2.907070000000000
H      -4.067790000000000     -1.522240000000000     -3.246340000000000
C      -5.749590000000000     -1.299880000000000     -1.908360000000000
H      -1.642240000000000     -0.973350000000000     -2.676050000000000
H      -5.637070000000000     -2.313030000000000     -1.466560000000000
H      -6.116950000000000     -0.598290000000000     -1.129070000000000
H      -6.487740000000000     -1.343900000000000     -2.734420000000000
C       4.654860000000000      0.772560000000000     -0.620520000000000
C       4.867720000000000     -0.557960000000000     -0.874550000000000
C       3.949940000000000     -1.284720000000000     -0.124860000000000
C       3.185200000000000     -0.416870000000000      0.553200000000000
N       3.600720000000000      0.898220000000000      0.293760000000000
C       2.067140000000000     -0.715450000000000      1.533730000000000
N       0.846950000000000     -1.323310000000000      0.978070000000000
C       0.682280000000000     -2.755150000000000      0.684040000000000
H       5.625110000000000     -0.949670000000000     -1.541680000000000
H       5.198930000000000      1.605050000000000     -1.044350000000000
H       3.895340000000000     -2.357260000000000     -0.100380000000000
H       1.748420000000000      0.270030000000000      1.939320000000000
H       2.443410000000000     -1.289940000000000      2.395000000000000
C       1.549830000000000     -3.615380000000000      1.607180000000000
C      -0.797280000000000     -3.103970000000000      0.937090000000000
C       0.973840000000000     -3.033290000000000     -0.804510000000000
H       1.301620000000000     -3.384550000000000      2.666330000000000
H       1.365730000000000     -4.692560000000000      1.421720000000000
H       2.623480000000000     -3.411340000000000      1.440980000000000
H      -1.456440000000000     -2.485670000000000      0.294910000000000
H      -1.003210000000000     -4.172150000000000      0.709130000000000
H      -1.077650000000000     -2.906230000000000      1.993510000000000
H       0.267120000000000     -2.476670000000000     -1.459590000000000
H       1.988710000000000     -2.731370000000000     -1.098520000000000
H       0.858760000000000     -4.115990000000000     -1.025190000000000
C       1.487280000000000      1.958320000000000     -1.970830000000000
C       1.048250000000000      2.811280000000000      0.185460000000000
O       0.635600000000000      1.932170000000000     -0.842120000000000
C       1.606320000000000      0.553990000000000     -2.567280000000000
C       0.683730000000000      4.244760000000000     -0.139780000000000
H       1.037830000000000      2.625440000000000     -2.733590000000000
H       2.514910000000000      2.312290000000000     -1.738920000000000
H       0.533650000000000      2.511530000000000      1.120030000000000
H       2.122960000000000      2.740240000000000      0.420340000000000
H      -0.406140000000000      4.322060000000000     -0.330240000000000
H       0.959360000000000      4.891290000000000      0.718760000000000
H       1.246080000000000      4.572700000000000     -1.037270000000000
H       2.058120000000000     -0.150330000000000     -1.845150000000000
H       0.611710000000000      0.156470000000000     -2.852840000000000
H       2.249390000000000      0.581540000000000     -3.470860000000000
Na      4.060870000000000     -0.036950000000000      7.940250000000000
C       6.358440000000000     -2.271620000000000      7.216580000000000
C       5.785050000000000     -1.067920000000000      5.339400000000000
O       5.282280000000000     -1.817460000000000      6.424220000000000
C       5.811110000000000     -3.079930000000000      8.384150000000000
C       4.621780000000000     -0.570540000000000      4.494830000000000
H       7.029890000000000     -2.937060000000000      6.627430000000000
H       6.930580000000000     -1.412960000000000      7.636480000000000
H       6.344340000000000     -0.177740000000000      5.703240000000000
H       6.431600000000000     -1.699740000000000      4.688330000000000
H       3.955980000000000      0.077610000000000      5.103340000000000
H       5.003500000000000      0.016220000000000      3.632330000000000
H       4.039520000000000     -1.434640000000000      4.113920000000000
H       5.239130000000000     -3.954780000000000      8.008360000000000
H       6.649920000000000     -3.443360000000000      9.014920000000000
H       5.141870000000000     -2.448100000000000      9.006019999999999
Na      4.347170000000000     -4.012820000000000      5.299180000000000
Mg     11.717689999999999      3.469190000000000      3.076780000000000
C      12.497690000000000      6.239300000000000      5.221480000000000
C      10.594989999999999      4.995230000000000      5.929920000000000
O      11.748559999999999      5.041820000000000      5.109480000000000
C      13.140829999999999      6.436400000000000      6.593110000000000
C       9.534500000000000      6.027960000000000      5.551410000000000
H      13.322070000000000      6.164570000000000      4.480280000000000
H      11.911070000000000      7.129860000000000      4.923730000000000
H      10.135490000000001      3.998450000000000      5.773270000000000
H      10.848280000000001      5.030160000000000      7.008730000000000
H       9.297620000000000      5.954010000000000      4.469920000000000
H       8.611310000000000      5.833620000000000      6.136140000000000
H       9.875299999999999      7.054900000000000      5.789600000000000
H      13.750629999999999      5.552330000000000      6.868170000000000
H      13.799870000000000      7.328930000000000      6.557710000000000
H      12.371990000000000      6.614220000000000      7.370760000000000
H      12.932499999999999      5.867790000000000      1.598560000000000
C      10.881650000000000      6.605230000000000      1.775830000000000
C      11.888199999999999      5.496880000000000      1.537270000000000
C      11.020610000000000      7.674350000000000      0.698990000000000
H       9.856730000000001      6.178930000000000      1.757850000000000
H      11.061120000000001      7.048120000000000      2.775820000000000
H      12.052000000000000      8.089230000000001      0.722390000000000
H      10.837339999999999      7.217880000000000     -0.298200000000000
C      10.024220000000000      8.801950000000000      0.924260000000000
H      11.703270000000000      4.982630000000000      0.571080000000000
H       8.986010000000000      8.408070000000000      0.891200000000000
H      10.204230000000001      9.280070000000000      1.910850000000000
H      10.147830000000001      9.562590000000000      0.126390000000000
C      13.847379999999999     -0.853040000000000      3.587710000000000
C      12.853999999999999     -1.371990000000000      2.795130000000000
C      11.674329999999999     -0.716590000000000      3.117520000000000
C      11.941730000000000      0.190080000000000      4.063580000000000
N      13.303160000000000      0.137280000000000      4.417460000000000
C      10.967969999999999      1.119570000000000      4.756000000000000
N      10.389970000000000      2.187710000000000      3.918670000000000
C       9.238619999999999      2.009520000000000      3.016710000000000
H      12.985060000000001     -2.155290000000000      2.060260000000000
H      14.887710000000000     -1.150230000000000      3.585110000000000
H      10.715630000000001     -0.930490000000000      2.680960000000000
H      11.550570000000000      1.641620000000000      5.546470000000000
H      10.185380000000000      0.544620000000000      5.284440000000000
C       8.292870000000001      0.903080000000000      3.504060000000000
C       8.464800000000000      3.341290000000000      3.010820000000000
C       9.721970000000001      1.753320000000000      1.574380000000000
H       7.954660000000000      1.136000000000000      4.536020000000000
H       7.402560000000000      0.832770000000000      2.845380000000000
H       8.793460000000000     -0.082830000000000      3.508310000000000
H       9.120210000000000      4.167970000000000      2.666110000000000
H       7.586060000000000      3.292940000000000      2.331850000000000
H       8.109540000000001      3.595990000000000      4.032160000000000
H      10.336460000000001      2.604690000000000      1.207440000000000
H      10.340660000000000      0.849290000000000      1.487280000000000
H       8.855440000000000      1.642610000000000      0.887900000000000
C      14.745279999999999      2.595860000000000      2.705760000000000
C      14.448210000000000      3.110940000000000      4.985720000000000
O      14.028169999999999      3.357380000000000      3.658360000000000
C      13.809730000000000      2.183070000000000      1.569900000000000
C      15.725460000000000      3.865010000000000      5.304720000000000
H      15.555270000000000      3.226010000000000      2.285170000000000
H      15.190040000000000      1.666550000000000      3.124430000000000
H      13.645519999999999      3.460360000000000      5.666390000000000
H      14.571389999999999      2.036270000000000      5.214900000000000
H      15.581870000000000      4.948600000000000      5.114530000000000
H      15.983700000000001      3.708510000000000      6.372660000000000
H      16.551819999999999      3.481750000000000      4.672150000000000
H      12.986990000000000      1.545930000000000      1.947790000000000
H      13.362740000000001      3.075270000000000      1.086150000000000
H      14.371630000000000      1.608450000000000      0.805260000000000

-C 0
6-31g(d,p)
****
-H 0
6-31g(d,p)
****
-Mg 0
6-31g(d,p)
****
-N 0
6-31+g(d,p)
****
-Na 0
6-31g(d,p)
****
-O 0
6-31+g(d,p)
****


