%chk=lowest10_c1_a2_speciation7_speciationDFT0_speciationDFT37b_rank10_E205.11.chk
%nprocshared=20
%mem=40GB
#p opt=loose PM7/gen scf=xqc 

lowest10_c1_a2_speciation7_speciationDFT0_speciationDFT37b_rank10_E205.11 DFT input

0 1
Mg     -0.361270000000000      0.362500000000000     -0.067230000000000
C       1.962620000000000      2.499560000000000      0.377930000000000
C       0.860840000000000      2.844370000000000     -1.708760000000000
O       1.381730000000000      1.922440000000000     -0.775300000000000
C       1.002920000000000      3.357780000000000      1.201500000000000
C       1.964010000000000      3.592760000000000     -2.438630000000000
H       2.254560000000000      1.651550000000000      1.023130000000000
H       2.911260000000000      3.023450000000000      0.147360000000000
H       0.303990000000000      2.244820000000000     -2.461790000000000
H       0.108410000000000      3.530620000000000     -1.268600000000000
H       2.700810000000000      2.866200000000000     -2.841340000000000
H       1.525240000000000      4.172620000000000     -3.276620000000000
H       2.470020000000000      4.294650000000000     -1.745910000000000
H       0.034440000000000      2.837010000000000      1.338260000000000
H       1.449140000000000      3.549630000000000      2.199750000000000
H       0.831190000000000      4.333520000000000      0.705940000000000
H      -2.569760000000000      1.374960000000000      0.845430000000000
C      -2.987260000000000      0.779890000000000     -1.210660000000000
C      -2.118480000000000      1.446740000000000     -0.164130000000000
C      -3.123040000000000     -0.719990000000000     -0.924230000000000
H      -3.976310000000000      1.278620000000000     -1.190000000000000
H      -2.525450000000000      0.911370000000000     -2.214890000000000
H      -2.138150000000000     -1.214640000000000     -1.056300000000000
H      -3.457260000000000     -0.887230000000000      0.121310000000000
C      -4.140540000000000     -1.358860000000000     -1.861090000000000
H      -1.917470000000000      2.506220000000000     -0.419780000000000
H      -5.137310000000000     -0.898790000000000     -1.690000000000000
H      -3.846410000000000     -1.212630000000000     -2.921830000000000
H      -4.212680000000000     -2.446910000000000     -1.652510000000000
C      -0.205730000000000     -3.057960000000000     -1.778210000000000
C       0.224260000000000     -1.901120000000000     -2.387980000000000
C       1.066170000000000     -1.256940000000000     -1.499590000000000
C       1.127490000000000     -1.983450000000000     -0.377240000000000
N       0.364680000000000     -3.162050000000000     -0.501420000000000
C       1.885580000000000     -1.634960000000000      0.876860000000000
N       1.264100000000000     -0.502650000000000      1.586550000000000
C       0.417470000000000     -0.798260000000000      2.768620000000000
H      -0.067890000000000     -1.560100000000000     -3.372980000000000
H      -0.889910000000000     -3.778400000000000     -2.201860000000000
H       1.563970000000000     -0.317310000000000     -1.684110000000000
H       2.926800000000000     -1.359960000000000      0.603260000000000
H       1.941480000000000     -2.531280000000000      1.514330000000000
C       1.249900000000000     -1.458540000000000      3.884320000000000
C      -0.116030000000000      0.545030000000000      3.306030000000000
C      -0.792860000000000     -1.685990000000000      2.407480000000000
H       2.146080000000000     -0.841520000000000      4.106800000000000
H       0.646230000000000     -1.556620000000000      4.812150000000000
H       1.577750000000000     -2.478460000000000      3.610960000000000
H      -0.763270000000000      1.039640000000000      2.553090000000000
H      -0.724930000000000      0.399760000000000      4.225610000000000
H       0.722930000000000      1.232830000000000      3.547030000000000
H      -1.463390000000000     -1.170450000000000      1.687400000000000
H      -0.470410000000000     -2.647220000000000      1.964010000000000
H      -1.386770000000000     -1.921760000000000      3.317820000000000
Na      4.717580000000000    -13.231960000000001      6.830440000000000
C       7.107000000000000    -13.819540000000000      4.798300000000000
C       5.854610000000000    -12.094310000000000      3.818270000000000
O       5.818850000000000    -13.265210000000000      4.612020000000000
C       7.778810000000000    -13.229660000000001      6.034310000000000
C       5.697240000000000    -12.427020000000001      2.336800000000000
H       6.987600000000000    -14.912540000000000      4.955430000000000
H       7.757640000000000    -13.706390000000001      3.902130000000000
H       5.002560000000000    -11.450880000000000      4.125580000000000
H       6.774480000000000    -11.491239999999999      3.985630000000000
H       4.735660000000000    -12.950570000000001      2.155540000000000
H       5.703970000000000    -11.487410000000001      1.746390000000000
H       6.531500000000000    -13.070330000000000      1.988780000000000
H       7.156300000000000    -13.415150000000001      6.934530000000000
H       8.770090000000000    -13.706830000000000      6.180450000000000
H       7.926000000000000    -12.136979999999999      5.915380000000000
C       5.675000000000000    -10.053369999999999      7.355910000000000
C       4.146110000000000    -10.790350000000000      9.029900000000000
O       4.761510000000000    -11.049289999999999      7.780240000000000
C       6.883760000000000     -9.891780000000001      8.278610000000000
C       3.268310000000000     -9.539280000000000      9.030559999999999
H       6.066760000000000    -10.386580000000000      6.372070000000000
H       5.168680000000000     -9.085900000000001      7.160750000000000
H       3.475440000000000    -11.652509999999999      9.234109999999999
H       4.880590000000000    -10.784280000000001      9.861599999999999
H       2.532970000000000     -9.593700000000000      8.201160000000000
H       2.721560000000000     -9.475569999999999      9.994500000000000
H       3.882110000000000     -8.621540000000000      8.929610000000000
H       7.383880000000000    -10.871650000000001      8.429209999999999
H       7.605010000000000     -9.187040000000000      7.814160000000000
H       6.584580000000000     -9.468830000000001      9.258780000000000
Na      4.135860000000000    -14.670660000000000      3.656530000000000
C       2.694180000000000    -15.460080000000000      6.547010000000000
C       1.694530000000000    -13.596340000000000      5.542450000000000
O       2.883670000000000    -14.343090000000000      5.703010000000000
C       3.879560000000000    -16.403410000000001      6.382140000000000
C       1.427130000000000    -12.684120000000000      6.738000000000000
H       2.660000000000000    -15.135070000000001      7.608880000000000
H       1.776160000000000    -16.033280000000001      6.286500000000000
H       1.831460000000000    -12.950170000000000      4.648820000000000
H       0.817050000000000    -14.243300000000000      5.321310000000000
H       2.290750000000000    -12.007370000000000      6.902430000000000
H       0.525290000000000    -12.068420000000000      6.537480000000000
H       1.246370000000000    -13.279159999999999      7.656370000000000
H       4.827160000000000    -15.877330000000001      6.626880000000000
H       3.767370000000000    -17.274529999999999      7.061410000000000
H       3.933380000000000    -16.771660000000001      5.336390000000000
C       2.649130000000000    -17.234330000000000      2.173610000000000
C       4.943920000000000    -17.539850000000001      2.119310000000000
O       3.892970000000000    -16.746680000000001      2.614690000000000
C       1.561000000000000    -16.318549999999998      2.718330000000000
C       6.253690000000000    -16.978290000000001      2.656290000000000
H       2.586890000000000    -17.220279999999999      1.062030000000000
H       2.466750000000000    -18.259399999999999      2.567240000000000
H       4.848780000000000    -18.590920000000001      2.473760000000000
H       4.979590000000000    -17.499250000000000      1.007320000000000
H       6.248580000000000    -17.005540000000000      3.767020000000000
H       7.109340000000000    -17.579760000000000      2.285340000000000
H       6.381430000000000    -15.925050000000001      2.324390000000000
H       1.711790000000000    -15.282230000000000      2.345840000000000
H       0.561130000000000    -16.676580000000001      2.397000000000000
H       1.598200000000000    -16.307569999999998      3.827320000000000
Mg      0.516290000000000     -9.372780000000001      3.604200000000000
H      -1.710110000000000    -11.372380000000000      2.605460000000000
C      -2.868040000000000     -9.511770000000000      2.593930000000000
C      -1.790960000000000    -10.418939999999999      3.165740000000000
C      -2.627100000000000     -9.152030000000000      1.121180000000000
H      -3.840170000000000    -10.040319999999999      2.681250000000000
H      -2.921190000000000     -8.580249999999999      3.196690000000000
H      -2.582600000000000    -10.076210000000000      0.504760000000000
H      -3.492040000000000     -8.545400000000001      0.779230000000000
C      -1.356870000000000     -8.329029999999999      0.895510000000000
H      -1.986510000000000    -10.623519999999999      4.240540000000000
H      -0.451670000000000     -8.921690000000000      1.137430000000000
H      -1.301610000000000     -8.029940000000000     -0.173570000000000
H      -1.371680000000000     -7.407480000000000      1.515930000000000
C       2.590120000000000     -9.956200000000001      1.270050000000000
C       3.748440000000000     -9.301959999999999      0.879070000000000
C       3.900430000000000     -8.216870000000000      1.728110000000000
C       2.823660000000000     -8.240970000000001      2.583930000000000
N       2.048820000000000     -9.305160000000001      2.306310000000000
C       2.494870000000000     -7.269910000000000      3.698660000000000
N       1.123860000000000     -7.519240000000000      4.190950000000000
C       0.530380000000000     -6.678830000000000      5.245590000000000
H       4.408560000000000     -9.584090000000000      0.071760000000000
H       2.178610000000000    -10.853160000000001      0.821170000000000
H       4.698390000000000     -7.484740000000000      1.714020000000000
H       3.243350000000000     -7.411300000000000      4.506490000000000
H       2.557980000000000     -6.241630000000000      3.294100000000000
C       0.362650000000000     -5.236580000000000      4.727100000000000
C      -0.862040000000000     -7.235740000000000      5.591520000000000
C       1.401710000000000     -6.690470000000000      6.513950000000000
H      -0.271430000000000     -5.227550000000000      3.813060000000000
H      -0.118600000000000     -4.593220000000000      5.494140000000000
H       1.342100000000000     -4.783010000000000      4.477140000000000
H      -0.787180000000000     -8.275280000000000      5.976660000000000
H      -1.351910000000000     -6.610190000000000      6.370730000000000
H      -1.515530000000000     -7.241720000000000      4.693640000000000
H       1.521840000000000     -7.728670000000000      6.888450000000000
H       2.406140000000000     -6.264960000000000      6.312190000000000
H       0.932190000000000     -6.077360000000000      7.313320000000000

-C 0
6-31g(d,p)
****
-H 0
6-31g(d,p)
****
-Mg 0
6-31g(d,p)
****
-N 0
6-31+g(d,p)
****
-Na 0
6-31g(d,p)
****
-O 0
6-31+g(d,p)
****


