%chk=lowest10_c1_a2_speciation7_speciationDFT96_speciationDFT96_rank01_E229.93.chk
%nprocshared=20
%mem=40GB
#p opt=loose PM7/gen scf=xqc 

lowest10_c1_a2_speciation7_speciationDFT96_speciationDFT96_rank01_E229.93 DFT input

0 1
Mg     -0.369920000000000     -0.138120000000000      0.191330000000000
C       0.540500000000000      2.975510000000000      1.525200000000000
C       2.124050000000000      1.243410000000000      1.955120000000000
O       1.016240000000000      1.684260000000000      1.192560000000000
C       1.532030000000000      4.092040000000000      1.212570000000000
C       1.815130000000000      1.076910000000000      3.440590000000000
H      -0.359100000000000      3.147770000000000      0.895390000000000
H       0.187920000000000      3.036660000000000      2.572430000000000
H       2.382790000000000      0.234610000000000      1.576440000000000
H       3.027100000000000      1.861370000000000      1.775260000000000
H       0.908210000000000      0.452060000000000      3.575400000000000
H       2.670030000000000      0.573450000000000      3.935580000000000
H       1.669020000000000      2.061740000000000      3.926030000000000
H       1.862500000000000      4.035150000000000      0.156000000000000
H       1.035310000000000      5.070810000000000      1.379410000000000
H       2.412280000000000      4.033070000000000      1.882760000000000
H      -2.713210000000000      1.509100000000000      0.989600000000000
C      -2.154250000000000      0.740960000000000      2.967850000000000
C      -2.359150000000000      0.577510000000000      1.477380000000000
C      -3.483900000000000      1.063150000000000      3.628390000000000
H      -1.737700000000000     -0.196900000000000      3.389730000000000
H      -1.429750000000000      1.558510000000000      3.149710000000000
H      -3.890070000000000      2.001750000000000      3.192130000000000
H      -4.197390000000000      0.232960000000000      3.433790000000000
C      -3.311830000000000      1.238840000000000      5.128500000000000
H      -3.007860000000000     -0.290480000000000      1.238170000000000
H      -2.915500000000000      0.304410000000000      5.580240000000000
H      -2.609810000000000      2.074220000000000      5.337720000000000
H      -4.297340000000000      1.470940000000000      5.580300000000000
C       0.650300000000000     -1.326970000000000     -4.455920000000000
C       0.381400000000000     -2.630890000000000     -4.127910000000000
C       0.835550000000000     -2.844190000000000     -2.831440000000000
C       1.350680000000000     -1.693160000000000     -2.375600000000000
N       1.278320000000000     -0.704650000000000     -3.368980000000000
C       2.004880000000000     -1.421970000000000     -1.034120000000000
N       1.128490000000000     -1.471840000000000      0.148240000000000
C       0.717880000000000     -2.705000000000000      0.837150000000000
H      -0.096310000000000     -3.350010000000000     -4.781240000000000
H       0.424940000000000     -0.838150000000000     -5.393420000000000
H       0.784640000000000     -3.784240000000000     -2.314190000000000
H       2.372980000000000     -0.373360000000000     -1.083540000000000
H       2.901650000000000     -2.051680000000000     -0.900290000000000
C       1.776170000000000     -3.801280000000000      0.689450000000000
C       0.571910000000000     -2.363150000000000      2.332720000000000
C      -0.664440000000000     -3.167100000000000      0.332680000000000
H       2.751140000000000     -3.424780000000000      1.069300000000000
H       1.487930000000000     -4.701100000000000      1.268900000000000
H       1.895410000000000     -4.092130000000000     -0.370320000000000
H      -0.177600000000000     -1.558670000000000      2.475000000000000
H       0.237710000000000     -3.247950000000000      2.916570000000000
H       1.534250000000000     -2.002690000000000      2.754240000000000
H      -1.441900000000000     -2.398320000000000      0.539850000000000
H      -0.677660000000000     -3.352310000000000     -0.750360000000000
H      -0.969740000000000     -4.103930000000000      0.845950000000000
C      -1.374240000000000      1.032640000000000     -2.564880000000000
C       0.649650000000000      2.115080000000000     -2.014880000000000
O      -0.497700000000000      1.443290000000000     -1.533770000000000
C      -2.002530000000000     -0.316740000000000     -2.209070000000000
C       0.327420000000000      3.543480000000000     -2.401280000000000
H      -2.185070000000000      1.783110000000000     -2.655240000000000
H      -0.872720000000000      0.919640000000000     -3.550170000000000
H       1.406920000000000      2.122530000000000     -1.205820000000000
H       1.141240000000000      1.599570000000000     -2.856180000000000
H      -0.124620000000000      4.073920000000000     -1.538540000000000
H       1.263670000000000      4.055410000000000     -2.705330000000000
H      -0.380360000000000      3.542840000000000     -3.254710000000000
H      -1.232660000000000     -1.104110000000000     -2.114710000000000
H      -2.550260000000000     -0.260240000000000     -1.247010000000000
H      -2.713390000000000     -0.622840000000000     -3.003910000000000
Na     11.476030000000000      4.650560000000000     -1.685200000000000
C      13.359990000000000      2.515160000000000     -3.134820000000000
C      11.693250000000001      3.030230000000000     -4.702450000000000
O      12.002829999999999      2.861260000000000     -3.332250000000000
C      14.221019999999999      3.764540000000000     -2.979190000000000
C      11.232170000000000      1.716830000000000     -5.329230000000000
H      13.427370000000000      1.925910000000000     -2.195880000000000
H      13.758260000000000      1.857920000000000     -3.940380000000000
H      10.862250000000000      3.764090000000000     -4.772860000000000
H      12.538069999999999      3.462760000000000     -5.283330000000000
H      10.335630000000000      1.328520000000000     -4.803090000000000
H      10.968740000000000      1.889370000000000     -6.393620000000000
H      12.037910000000000      0.955650000000000     -5.281750000000000
H      13.858879999999999      4.375650000000000     -2.126210000000000
H      15.272779999999999      3.467980000000000     -2.785910000000000
H      14.189790000000000      4.378150000000000     -3.902450000000000
C      12.087809999999999      7.038740000000000     -3.983930000000000
C      11.111359999999999      7.952780000000000     -2.010720000000000
O      11.440960000000000      6.788840000000000     -2.748620000000000
C      13.449650000000000      7.719570000000000     -3.841160000000000
C      10.101039999999999      8.857870000000000     -2.715580000000000
H      12.273690000000000      6.046880000000000     -4.446700000000000
H      11.427130000000000      7.577350000000000     -4.693580000000000
H      10.629500000000000      7.603880000000000     -1.072180000000000
H      12.015100000000000      8.510330000000000     -1.688890000000000
H       9.201720000000000      8.273160000000001     -3.002120000000000
H       9.797190000000001      9.673620000000000     -2.026720000000000
H      10.546590000000000      9.326260000000000     -3.616240000000000
H      14.096520000000000      7.139900000000000     -3.149530000000000
H      13.938890000000001      7.767610000000000     -4.836650000000000
H      13.340290000000000      8.758680000000000     -3.470520000000000
Na     10.327500000000001      1.385280000000000     -2.455660000000000
C       9.743760000000000      3.166370000000000      0.297510000000000
C       8.294680000000000      3.734110000000000     -1.447920000000000
O       9.578519999999999      3.254480000000000     -1.102140000000000
C      10.970739999999999      2.314870000000000      0.595470000000000
C       8.199870000000001      5.252440000000000     -1.314300000000000
H       9.912490000000000      4.176660000000000      0.728470000000000
H       8.877670000000000      2.672030000000000      0.786210000000000
H       8.125019999999999      3.476060000000000     -2.515260000000000
H       7.485020000000000      3.226050000000000     -0.878220000000000
H       8.979910000000000      5.737910000000000     -1.936320000000000
H       7.202520000000000      5.591870000000000     -1.663980000000000
H       8.323990000000000      5.565150000000000     -0.257330000000000
H      11.871650000000001      2.757910000000000      0.119800000000000
H      11.133490000000000      2.258840000000000      1.692610000000000
H      10.826110000000000      1.286530000000000      0.203270000000000
C       8.894520000000000     -1.269120000000000     -1.078210000000000
C      11.129429999999999     -1.727180000000000     -1.472630000000000
O      10.131349999999999     -0.735620000000000     -1.485240000000000
C       7.854150000000000     -0.158790000000000     -1.142340000000000
C      12.443300000000001     -1.082220000000000     -1.893090000000000
H       8.568840000000000     -2.086100000000000     -1.761060000000000
H       8.949240000000000     -1.630520000000000     -0.026850000000000
H      11.262290000000000     -2.143060000000000     -0.448510000000000
H      10.892560000000000     -2.536080000000000     -2.200050000000000
H      12.707820000000000     -0.268360000000000     -1.184510000000000
H      13.257059999999999     -1.836810000000000     -1.894770000000000
H      12.347420000000000     -0.651940000000000     -2.913600000000000
H       7.772860000000000      0.228670000000000     -2.180940000000000
H       6.863560000000000     -0.541550000000000     -0.820520000000000
H       8.150969999999999      0.674860000000000     -0.472830000000000
Mg      8.235709999999999      4.158890000000000      6.450990000000000
C      11.657780000000001      3.642700000000000      7.398340000000000
C      10.805440000000001      1.946980000000000      5.960230000000000
O      10.638430000000000      3.246910000000000      6.497200000000000
C      13.029140000000000      3.801360000000000      6.744160000000000
C      10.705310000000001      0.837250000000000      7.005820000000000
H      11.362660000000000      4.640550000000000      7.787940000000000
H      11.712400000000001      2.982500000000000      8.285520000000000
H       9.969200000000001      1.788390000000000      5.249680000000000
H      11.725190000000000      1.863700000000000      5.346760000000000
H       9.768050000000001      0.945490000000000      7.589820000000000
H      10.698309999999999     -0.147200000000000      6.493260000000000
H      11.575910000000000      0.855120000000000      7.690850000000000
H      12.969440000000001      4.488220000000000      5.875990000000000
H      13.736760000000000      4.224400000000000      7.487490000000000
H      13.428780000000000      2.821460000000000      6.416180000000000
H       8.898490000000001      5.176380000000000      9.267670000000001
C       8.689360000000001      3.050670000000000      9.735540000000000
C       8.265790000000001      4.305410000000000      8.997529999999999
C       8.524900000000001      3.250370000000000     11.237200000000000
H       8.065590000000000      2.197690000000000      9.395160000000001
H       9.748640000000000      2.829800000000000      9.495699999999999
H       9.148780000000000      4.110410000000000     11.565170000000000
H       7.458830000000000      3.469980000000000     11.464359999999999
C       8.952830000000001      2.004680000000000     11.998830000000000
H       7.190370000000000      4.527480000000000      9.159780000000000
H       8.330819999999999      1.136380000000000     11.693420000000000
H      10.021739999999999      1.780230000000000     11.795339999999999
H       8.821080000000000      2.179000000000000     13.086349999999999
C       7.010350000000000      6.959660000000000      2.685610000000000
C       5.766330000000000      6.381730000000000      2.736250000000000
C       5.937280000000000      5.044170000000000      3.062520000000000
C       7.245020000000000      4.815980000000000      3.227280000000000
N       7.979780000000000      5.990510000000000      2.981140000000000
C       7.919030000000000      3.501240000000000      3.556250000000000
N       7.671360000000000      2.969320000000000      4.908500000000000
C       6.477710000000000      2.195460000000000      5.291760000000000
H       4.830820000000000      6.892220000000000      2.548300000000000
H       7.225170000000000      7.994820000000000      2.456240000000000
H       5.140760000000000      4.327450000000000      3.146080000000000
H       9.013330000000000      3.694020000000000      3.504360000000000
H       7.701970000000000      2.747510000000000      2.780130000000000
C       5.885230000000000      1.422630000000000      4.103560000000000
C       6.927630000000000      1.178340000000000      6.357140000000000
C       5.431760000000000      3.118270000000000      5.950690000000000
H       6.659000000000000      0.755890000000000      3.664710000000000
H       5.031650000000000      0.798430000000000      4.436340000000000
H       5.520910000000000      2.109760000000000      3.317310000000000
H       7.365610000000000      1.702460000000000      7.232010000000000
H       6.071660000000000      0.566850000000000      6.716080000000000
H       7.703790000000000      0.496350000000000      5.949030000000000
H       5.851850000000000      3.605150000000000      6.858310000000000
H       5.092940000000000      3.922350000000000      5.282490000000000
H       4.539790000000000      2.534480000000000      6.263350000000000
C       8.581340000000001      7.278510000000000      5.994590000000000
C      10.464760000000000      6.228600000000000      5.044700000000000
O       9.453560000000000      6.165180000000000      6.030820000000000
C       7.160710000000000      6.828090000000000      6.333260000000000
C      11.587429999999999      7.155810000000000      5.471100000000000
H       8.910959999999999      8.012210000000000      6.758280000000000
H       8.543279999999999      7.780240000000000      5.002840000000000
H      10.874150000000000      5.206590000000000      4.911790000000000
H      10.087140000000000      6.518660000000000      4.046730000000000
H      11.991339999999999      6.833430000000000      6.452910000000000
H      12.395200000000001      7.123410000000000      4.710790000000000
H      11.204010000000000      8.193560000000000      5.548560000000000
H       6.790740000000000      6.096500000000000      5.589160000000000
H       7.128590000000000      6.351240000000000      7.334020000000000
H       6.475830000000000      7.700760000000000      6.333700000000000

-C 0
6-31g(d,p)
****
-H 0
6-31g(d,p)
****
-Mg 0
6-31g(d,p)
****
-N 0
6-31+g(d,p)
****
-Na 0
6-31g(d,p)
****
-O 0
6-31+g(d,p)
****


