%chk=lowest10_c1_a2_speciation0_speciationDFT2_speciationDFT38_rank09_E181.09.chk
%nprocshared=20
%mem=40GB
#p opt=loose PM7/gen scf=xqc 

lowest10_c1_a2_speciation0_speciationDFT2_speciationDFT38_rank09_E181.09 DFT input

0 1
Mg     -0.841580000000000     -0.476170000000000     -0.134540000000000
C       2.365880000000000     -0.641210000000000     -0.858980000000000
C       1.302440000000000      1.030660000000000     -2.201730000000000
O       1.159080000000000     -0.089250000000000     -1.355300000000000
C       3.347770000000000      0.363650000000000     -0.252210000000000
C       1.944770000000000      0.672630000000000     -3.532740000000000
H       2.071440000000000     -1.319710000000000     -0.034530000000000
H       2.854680000000000     -1.275230000000000     -1.625920000000000
H       0.281360000000000      1.400390000000000     -2.415280000000000
H       1.806610000000000      1.878600000000000     -1.697740000000000
H       1.915570000000000      1.559470000000000     -4.198970000000000
H       1.389670000000000     -0.160510000000000     -4.011470000000000
H       2.999340000000000      0.371610000000000     -3.379070000000000
H       2.845040000000000      0.996940000000000      0.497130000000000
H       3.795830000000000      1.001900000000000     -1.039990000000000
H       4.163890000000000     -0.182980000000000      0.261060000000000
H      -1.741660000000000     -1.981510000000000     -2.142140000000000
C      -3.267600000000000     -0.413590000000000     -1.983190000000000
C      -2.293410000000000     -1.426260000000000     -1.357250000000000
C      -2.611580000000000      0.708600000000000     -2.812150000000000
H      -3.981800000000000     -0.968710000000000     -2.626050000000000
H      -3.837380000000000      0.074950000000000     -1.163930000000000
H      -3.417800000000000      1.365880000000000     -3.209570000000000
H      -1.970370000000000      1.332600000000000     -2.157630000000000
C      -1.795550000000000      0.199940000000000     -4.000430000000000
H      -2.845270000000000     -2.142580000000000     -0.719090000000000
H      -0.949100000000000     -0.422490000000000     -3.652360000000000
H      -2.432580000000000     -0.397240000000000     -4.685060000000000
H      -1.378850000000000      1.062860000000000     -4.565130000000000
C       0.203870000000000      3.302660000000000      0.219900000000000
C      -1.107540000000000      2.886370000000000      0.239900000000000
C      -1.179130000000000      1.785410000000000      1.075160000000000
C       0.052180000000000      1.523190000000000      1.526590000000000
N       0.975400000000000      2.472040000000000      1.043870000000000
C       0.442500000000000      0.355670000000000      2.393590000000000
N       0.116220000000000     -0.891160000000000      1.690410000000000
C       0.265700000000000     -2.180610000000000      2.407710000000000
H      -1.918030000000000      3.332660000000000     -0.320380000000000
H       0.597670000000000      4.130520000000000     -0.352380000000000
H      -2.068890000000000      1.202100000000000      1.280380000000000
H      -0.097280000000000      0.429060000000000      3.354480000000000
H       1.537260000000000      0.404270000000000      2.572280000000000
C      -0.753760000000000     -2.285970000000000      3.559130000000000
C       0.011890000000000     -3.328460000000000      1.416860000000000
C       1.697410000000000     -2.333310000000000      2.975890000000000
H      -1.789880000000000     -2.209750000000000      3.168750000000000
H      -0.643850000000000     -3.257520000000000      4.089390000000000
H      -0.598660000000000     -1.489490000000000      4.314540000000000
H       0.753130000000000     -3.308520000000000      0.590360000000000
H       0.092110000000000     -4.314140000000000      1.928540000000000
H      -1.005070000000000     -3.245020000000000      0.979690000000000
H       2.453450000000000     -2.263380000000000      2.165010000000000
H       1.920690000000000     -1.551540000000000      3.731490000000000
H       1.821450000000000     -3.318920000000000      3.476250000000000
Na      1.248940000000000      5.613810000000000      2.790950000000000
C      -0.667360000000000      5.027560000000000      5.390120000000000
C       1.539530000000000      4.614610000000000      5.905520000000000
O       0.505580000000000      4.358040000000000      4.979530000000000
C      -1.780390000000000      4.739050000000000      4.393140000000000
C       2.805630000000000      3.902560000000000      5.449970000000000
H      -1.002710000000000      4.664320000000000      6.388510000000000
H      -0.506360000000000      6.129320000000000      5.409370000000000
H       1.763420000000000      5.704630000000000      5.957500000000000
H       1.272660000000000      4.222780000000000      6.913450000000000
H       3.114510000000000      4.273560000000000      4.449590000000000
H       3.626040000000000      4.096650000000000      6.173270000000000
H       2.629450000000000      2.807330000000000      5.392550000000000
H      -1.979570000000000      3.647140000000000      4.347520000000000
H      -2.708820000000000      5.261880000000000      4.707350000000000
H      -1.490210000000000      5.096610000000000      3.382170000000000
Na     -0.047010000000000      1.821100000000000      5.372170000000000
Mg     -4.913410000000000      7.583190000000000      6.661650000000000
H      -7.665310000000000      8.947830000000000      6.499680000000000
C      -8.261469999999999      6.861520000000000      6.831630000000000
C      -7.405480000000000      7.925520000000000      6.157590000000000
C      -8.039830000000000      6.768550000000000      8.350250000000001
H      -9.328920000000000      7.070800000000000      6.611120000000000
H      -7.997210000000000      5.875660000000000      6.391230000000000
H      -8.709660000000000      5.971770000000000      8.740970000000001
H      -6.991090000000000      6.473220000000000      8.566129999999999
C      -8.348360000000000      8.066540000000000      9.095039999999999
H      -7.500080000000000      7.870590000000000      5.053900000000000
H      -7.634210000000000      8.864929999999999      8.804830000000001
H      -9.385899999999999      8.399089999999999      8.882930000000000
H      -8.241880000000000      7.897880000000000     10.187640000000000
C      -4.327290000000000      5.131130000000000      8.590630000000001
C      -3.223840000000000      4.810050000000000      9.365480000000000
C      -2.298100000000000      5.826040000000000      9.184770000000000
C      -2.880410000000000      6.731080000000000      8.327310000000001
N      -4.098310000000000      6.292860000000000      7.965150000000000
C      -2.301610000000000      8.032859999999999      7.811310000000000
N      -3.351960000000000      8.808050000000000      7.117770000000000
C      -3.057620000000000     10.124670000000000      6.525500000000000
H      -3.104970000000000      3.934670000000000      9.987700000000000
H      -5.234040000000000      4.545510000000000      8.492920000000000
H      -1.317690000000000      5.902700000000000      9.637290000000000
H      -1.465640000000000      7.784200000000000      7.125640000000000
H      -1.927620000000000      8.615720000000000      8.674700000000000
C      -1.912430000000000     10.027410000000000      5.501460000000000
C      -4.322990000000000     10.635210000000001      5.811970000000000
C      -2.690790000000000     11.122800000000000      7.641140000000000
H      -2.173320000000000      9.307950000000000      4.696130000000000
H      -1.719240000000000     11.020510000000000      5.040950000000000
H      -0.970780000000000      9.696199999999999      5.985310000000000
H      -5.173870000000000     10.710990000000001      6.523170000000000
H      -4.146220000000000     11.643359999999999      5.374800000000000
H      -4.616570000000000      9.947640000000000      4.990110000000000
H      -3.521600000000000     11.196669999999999      8.377079999999999
H      -1.774420000000000     10.807539999999999      8.179980000000000
H      -2.502910000000000     12.133789999999999      7.221120000000000

-C 0
6-31g(d,p)
****
-H 0
6-31g(d,p)
****
-Mg 0
6-31g(d,p)
****
-N 0
6-31+g(d,p)
****
-Na 0
6-31g(d,p)
****
-O 0
6-31+g(d,p)
****


