%chk=lowest10_c1_a2_speciation0_speciationDFT1_speciationDFT37b_rank02_E164.78.chk
%nprocshared=20
%mem=40GB
#p opt=loose PM7/gen scf=xqc 

lowest10_c1_a2_speciation0_speciationDFT1_speciationDFT37b_rank02_E164.78 DFT input

0 1
Mg     -0.155460000000000     -0.421470000000000      0.355000000000000
C      -0.421440000000000      1.756860000000000      2.664660000000000
C      -2.441160000000000      0.513050000000000      2.413770000000000
O      -1.351370000000000      1.154000000000000      1.786140000000000
C       0.235430000000000      0.786000000000000      3.645160000000000
C      -3.412170000000000      1.513950000000000      3.017510000000000
H       0.388400000000000      2.146840000000000      2.022110000000000
H      -0.843180000000000      2.649710000000000      3.167190000000000
H      -2.980150000000000     -0.040180000000000      1.613680000000000
H      -2.128460000000000     -0.261720000000000      3.143700000000000
H      -3.675990000000000      2.279330000000000      2.257660000000000
H      -4.332610000000000      0.986580000000000      3.339970000000000
H      -2.953540000000000      2.003790000000000      3.899710000000000
H       0.566160000000000     -0.132560000000000      3.121010000000000
H       1.120970000000000      1.273440000000000      4.104140000000000
H      -0.469950000000000      0.515670000000000      4.455360000000000
H       0.643810000000000     -2.639940000000000      1.432560000000000
C      -1.165940000000000     -3.132320000000000      0.319710000000000
C      -0.383960000000000     -2.256190000000000      1.276300000000000
C      -0.511540000000000     -3.138550000000000     -1.066380000000000
H      -1.190320000000000     -4.152600000000000      0.748240000000000
H      -2.204420000000000     -2.743070000000000      0.223720000000000
H      -0.592970000000000     -2.129390000000000     -1.521250000000000
H       0.565480000000000     -3.396530000000000     -0.986340000000000
C      -1.183240000000000     -4.159990000000000     -1.975570000000000
H      -0.906060000000000     -2.150440000000000      2.248100000000000
H      -1.055300000000000     -5.176190000000000     -1.544840000000000
H      -2.266570000000000     -3.940850000000000     -2.082200000000000
H      -0.709370000000000     -4.138790000000000     -2.979410000000000
C      -0.937920000000000     -0.082760000000000     -3.347060000000000
C      -1.876640000000000      0.202940000000000     -2.374000000000000
C      -1.262770000000000      1.046120000000000     -1.468600000000000
C      -0.012800000000000      1.210690000000000     -1.893980000000000
N       0.173610000000000      0.509330000000000     -3.095170000000000
C       1.076530000000000      2.007610000000000     -1.218890000000000
N       1.533100000000000      1.355200000000000      0.020970000000000
C       2.811820000000000      0.603590000000000     -0.015100000000000
H      -2.886510000000000     -0.186690000000000     -2.314880000000000
H      -1.084130000000000     -0.721770000000000     -4.203130000000000
H      -1.711400000000000      1.465290000000000     -0.583230000000000
H       0.677560000000000      3.013490000000000     -0.968050000000000
H       1.904400000000000      2.152000000000000     -1.931250000000000
C       3.989560000000000      1.547160000000000     -0.326340000000000
C       3.041160000000000      0.005180000000000      1.387790000000000
C       2.771590000000000     -0.557220000000000     -1.031910000000000
H       3.984480000000000      2.407080000000000      0.376630000000000
H       4.955730000000000      1.008370000000000     -0.219660000000000
H       3.953820000000000      1.931780000000000     -1.363300000000000
H       2.241250000000000     -0.720480000000000      1.640750000000000
H       4.011620000000000     -0.535960000000000      1.443200000000000
H       3.041720000000000      0.803580000000000      2.160780000000000
H       2.001310000000000     -1.306130000000000     -0.750110000000000
H       2.550030000000000     -0.191630000000000     -2.052900000000000
H       3.754780000000000     -1.076010000000000     -1.067960000000000
Na    -17.079270000000001     -1.720730000000000      5.547070000000000
C     -14.799060000000001     -3.305850000000000      3.806130000000000
C     -13.846990000000000     -2.299680000000000      5.646390000000000
O     -14.685020000000000     -2.098650000000000      4.528480000000000
C     -15.692370000000000     -3.080650000000000      2.594700000000000
C     -13.740309999999999     -0.999050000000000      6.429810000000000
H     -13.804410000000001     -3.639950000000000      3.435580000000000
H     -15.268179999999999     -4.098460000000000      4.432400000000000
H     -14.273730000000000     -3.071170000000000      6.327350000000000
H     -12.820480000000000     -2.588030000000000      5.323660000000000
H     -14.745150000000001     -0.680190000000000      6.780060000000000
H     -13.082789999999999     -1.145520000000000      7.312870000000000
H     -13.308570000000000     -0.201020000000000      5.789100000000000
H     -15.254060000000001     -2.301090000000000      1.935960000000000
H     -15.787830000000000     -4.025250000000000      2.018240000000000
H     -16.703240000000001     -2.755270000000000      2.920350000000000
Na    -13.243460000000001     -0.554740000000000      2.954150000000000
Mg     -7.165640000000000     -3.262250000000000      3.313930000000000
H      -4.119450000000000     -3.634530000000000      2.973020000000000
C      -4.857160000000000     -5.543540000000000      2.202340000000000
C      -4.895630000000000     -4.395930000000000      3.194410000000000
C      -3.513940000000000     -6.260400000000000      2.300340000000000
H      -5.685310000000000     -6.249530000000000      2.430660000000000
H      -5.007420000000000     -5.139420000000000      1.177230000000000
H      -2.697320000000000     -5.539510000000000      2.082910000000000
H      -3.381020000000000     -6.652790000000000      3.332240000000000
C      -3.431530000000000     -7.416390000000000      1.314570000000000
H      -4.813860000000000     -4.759510000000000      4.240230000000000
H      -4.228620000000000     -8.160140000000000      1.527590000000000
H      -3.543480000000000     -7.042730000000000      0.274540000000000
H      -2.442560000000000     -7.909610000000000      1.415480000000000
C      -7.055260000000000     -0.274770000000000      4.370180000000000
C      -8.004540000000000      0.733630000000000      4.382660000000000
C      -9.149360000000000      0.218850000000000      3.792440000000000
C      -8.844889999999999     -1.075110000000000      3.431320000000000
N      -7.587520000000000     -1.363710000000000      3.792350000000000
C      -9.746670000000000     -2.083170000000000      2.740580000000000
N      -8.970129999999999     -3.289120000000000      2.381160000000000
C      -9.596760000000000     -4.421820000000000      1.677160000000000
H      -7.879770000000000      1.731470000000000      4.780840000000000
H      -6.047980000000000     -0.214850000000000      4.761410000000000
H     -10.089210000000000      0.729910000000000      3.636660000000000
H     -10.150390000000000     -1.617290000000000      1.821910000000000
H     -10.570840000000000     -2.335920000000000      3.438630000000000
C     -10.046110000000001     -3.976560000000000      0.272710000000000
C      -8.555510000000000     -5.545230000000000      1.522460000000000
C     -10.795460000000000     -4.962960000000000      2.475090000000000
H      -9.175660000000001     -3.594660000000000     -0.304890000000000
H     -10.492979999999999     -4.826430000000000     -0.285820000000000
H     -10.808109999999999     -3.173200000000000      0.329110000000000
H      -8.210340000000000     -5.901810000000000      2.516330000000000
H      -8.991780000000000     -6.411340000000000      0.976280000000000
H      -7.672120000000000     -5.187860000000000      0.951020000000000
H     -10.472000000000000     -5.280250000000000      3.489800000000000
H     -11.583560000000000     -4.190600000000000      2.577180000000000
H     -11.246169999999999     -5.836590000000000      1.956930000000000

-C 0
6-31g(d,p)
****
-H 0
6-31g(d,p)
****
-Mg 0
6-31g(d,p)
****
-N 0
6-31+g(d,p)
****
-Na 0
6-31g(d,p)
****
-O 0
6-31+g(d,p)
****


