%chk=lowest10_c1_a2_speciation7_speciationDFT2_speciationDFT2_rank05_E221.90.chk
%nprocshared=20
%mem=40GB
#p opt=loose PM7/gen scf=xqc 

lowest10_c1_a2_speciation7_speciationDFT2_speciationDFT2_rank05_E221.90 DFT input

0 1
Mg     -0.726670000000000     -0.134810000000000     -0.606660000000000
H       0.427070000000000     -1.939570000000000     -2.781040000000000
C       0.128370000000000     -0.073440000000000     -3.903120000000000
C      -0.322430000000000     -1.131830000000000     -2.905760000000000
C       1.373420000000000      0.707270000000000     -3.450010000000000
H       0.316160000000000     -0.564850000000000     -4.880120000000000
H      -0.699340000000000      0.657910000000000     -4.028550000000000
H       1.620910000000000      1.440000000000000     -4.248780000000000
H       1.153110000000000      1.273740000000000     -2.520390000000000
C       2.596450000000000     -0.175510000000000     -3.207460000000000
H      -1.299170000000000     -1.568720000000000     -3.197400000000000
H       2.424660000000000     -0.854760000000000     -2.346660000000000
H       2.830500000000000     -0.772560000000000     -4.113280000000000
H       3.470340000000000      0.465430000000000     -2.963960000000000
C      -0.091370000000000      2.971350000000000     -0.427290000000000
C       0.146350000000000      3.801610000000000      0.658010000000000
C       0.080510000000000      3.004540000000000      1.789600000000000
C      -0.173390000000000      1.726310000000000      1.352670000000000
N      -0.287810000000000      1.723960000000000      0.009780000000000
C      -0.334500000000000      0.470200000000000      2.181630000000000
N      -0.342130000000000     -0.718430000000000      1.303790000000000
C      -0.464720000000000     -2.075030000000000      1.866660000000000
H       0.339220000000000      4.862650000000000      0.630170000000000
H      -0.121940000000000      3.274680000000000     -1.469070000000000
H       0.214000000000000      3.319290000000000      2.817920000000000
H      -1.287700000000000      0.558780000000000      2.743830000000000
H       0.519270000000000      0.402290000000000      2.882660000000000
C      -1.738270000000000     -2.207760000000000      2.721620000000000
C      -0.535570000000000     -3.086980000000000      0.707920000000000
C       0.781080000000000     -2.393610000000000      2.716370000000000
H      -2.638850000000000     -1.978070000000000      2.112960000000000
H      -1.833180000000000     -3.241890000000000      3.118010000000000
H      -1.709030000000000     -1.519690000000000      3.591180000000000
H       0.366900000000000     -3.013820000000000      0.063260000000000
H      -0.596990000000000     -4.126910000000000      1.100140000000000
H      -1.430820000000000     -2.902230000000000      0.076370000000000
H       1.699790000000000     -2.306560000000000      2.095330000000000
H       0.873370000000000     -1.697940000000000      3.574650000000000
H       0.728640000000000     -3.424920000000000      3.125010000000000
Na     -2.005550000000000     10.169219999999999     -2.633680000000000
C      -4.989920000000000     11.330530000000000     -2.594480000000000
C      -5.215380000000000      9.105499999999999     -1.887530000000000
O      -4.506530000000000     10.006679999999999     -2.716860000000000
C      -4.251060000000000     12.076980000000001     -1.488320000000000
C      -6.415860000000000      8.510770000000001     -2.619690000000000
H      -4.798730000000000     11.852359999999999     -3.555950000000000
H      -6.090890000000000     11.374390000000000     -2.433780000000000
H      -4.523500000000000      8.279260000000001     -1.618040000000000
H      -5.535450000000000      9.566780000000000     -0.926620000000000
H      -6.087940000000000      7.977960000000000     -3.535990000000000
H      -6.929640000000000      7.784300000000000     -1.956130000000000
H      -7.136360000000000      9.305990000000000     -2.901500000000000
H      -3.160630000000000     12.087899999999999     -1.695540000000000
H      -4.616060000000000     13.123939999999999     -1.439180000000000
H      -4.427670000000000     11.592930000000001     -0.506160000000000
C      -2.052960000000000      9.477490000000000      0.685050000000000
C       0.159850000000000      9.421780000000000     -0.197210000000000
O      -1.230260000000000      9.471579999999999     -0.468380000000000
C      -1.860050000000000     10.706759999999999      1.574280000000000
C       0.599940000000000      8.136049999999999      0.502920000000000
H      -3.101820000000000      9.506800000000000      0.322430000000000
H      -1.965140000000000      8.532530000000000      1.259260000000000
H       0.673440000000000      9.442390000000000     -1.182270000000000
H       0.511970000000000     10.327980000000000      0.337450000000000
H       0.252930000000000      7.254180000000000     -0.074580000000000
H       1.707960000000000      8.113410000000000      0.566560000000000
H       0.202990000000000      8.087719999999999      1.536970000000000
H      -1.985470000000000     11.634359999999999      0.977040000000000
H      -2.619740000000000     10.693519999999999      2.383780000000000
H      -0.860300000000000     10.701430000000000      2.053400000000000
Na     -4.499020000000000      8.992509999999999     -4.903280000000000
C      -1.261590000000000      9.593410000000000     -5.498030000000000
C      -1.628910000000000      7.475560000000000     -4.573110000000000
O      -2.087320000000000      8.809650000000000     -4.661590000000000
C      -1.996930000000000     10.882880000000000     -5.840700000000000
C      -0.464600000000000      7.338240000000000     -3.594430000000000
H      -0.324530000000000      9.863890000000000     -4.965770000000000
H      -1.028680000000000      9.080380000000000     -6.458190000000000
H      -2.471610000000000      6.864190000000000     -4.184970000000000
H      -1.374930000000000      7.048380000000000     -5.568640000000000
H      -0.760490000000000      7.719250000000000     -2.595340000000000
H      -0.185280000000000      6.267910000000000     -3.500010000000000
H       0.421560000000000      7.899760000000000     -3.954240000000000
H      -2.251690000000000     11.439520000000000     -4.913480000000000
H      -1.355220000000000     11.524520000000001     -6.479760000000000
H      -2.933110000000000     10.653870000000000     -6.391300000000000
C      -5.032830000000000      8.553050000000001     -8.149319999999999
C      -6.225610000000000     10.402350000000000     -7.433490000000000
O      -5.268830000000000      9.434030000000000     -7.077640000000000
C      -4.018100000000000      7.512600000000000     -7.695150000000000
C      -6.417830000000000     11.337750000000000     -6.247580000000000
H      -5.966020000000000      8.019539999999999     -8.439850000000000
H      -4.602260000000000      9.098500000000000     -9.018890000000001
H      -5.872620000000000     11.009570000000000     -8.297300000000000
H      -7.205750000000000      9.925260000000000     -7.660240000000000
H      -5.454580000000000     11.830970000000001     -5.995960000000000
H      -7.168420000000000     12.117380000000001     -6.493440000000000
H      -6.769190000000000     10.763960000000001     -5.362700000000000
H      -4.414780000000000      6.946850000000000     -6.824600000000000
H      -3.802080000000000      6.802440000000000     -8.519970000000001
H      -3.073720000000000      8.012610000000000     -7.395800000000000
Mg     -0.888110000000000     17.570090000000000     -3.168240000000000
H      -2.541620000000000     18.704630000000002     -0.815780000000000
C      -3.667050000000000     19.502829999999999     -2.520760000000000
C      -2.364030000000000     19.194189999999999     -1.794760000000000
C      -4.461500000000000     18.246070000000000     -2.911860000000000
H      -4.286350000000000     20.163879999999999     -1.879040000000000
H      -3.419570000000000     20.051349999999999     -3.455420000000000
H      -5.385300000000000     18.579049999999999     -3.433330000000000
H      -3.870960000000000     17.625889999999998     -3.619140000000000
C      -4.866980000000000     17.382190000000001     -1.718260000000000
H      -1.772200000000000     20.119119999999999     -1.638230000000000
H      -3.972710000000000     16.948989999999998     -1.224210000000000
H      -5.444860000000000     17.981430000000000     -0.983890000000000
H      -5.499600000000000     16.540360000000000     -2.071290000000000
C      -2.209700000000000     16.647130000000001     -5.901930000000000
C      -1.948400000000000     15.574479999999999     -6.739090000000000
C      -0.918440000000000     14.851100000000001     -6.157070000000000
C      -0.609660000000000     15.499570000000000     -4.982140000000000
N      -1.384340000000000     16.587360000000000     -4.847040000000000
C       0.438370000000000     15.118620000000000     -3.954100000000000
N       0.270760000000000     15.948689999999999     -2.742050000000000
C       1.159820000000000     15.786830000000000     -1.578720000000000
H      -2.447900000000000     15.347149999999999     -7.670440000000000
H      -2.952270000000000     17.419450000000001     -6.060520000000000
H      -0.457180000000000     13.950860000000000     -6.540450000000000
H       1.437490000000000     15.271550000000000     -4.412490000000000
H       0.298090000000000     14.052980000000000     -3.689520000000000
C       2.632710000000000     15.998559999999999     -1.973140000000000
C       0.771280000000000     16.835580000000000     -0.520870000000000
C       0.967450000000000     14.383570000000001     -0.970740000000000
H       2.774990000000000     17.009370000000001     -2.411700000000000
H       3.289930000000000     15.904109999999999     -1.081550000000000
H       2.962140000000000     15.239140000000001     -2.711560000000000
H      -0.291370000000000     16.714829999999999     -0.218120000000000
H       1.405510000000000     16.730319999999999      0.387380000000000
H       0.904180000000000     17.864229999999999     -0.919610000000000
H      -0.096510000000000     14.232839999999999     -0.683410000000000
H       1.250270000000000     13.589280000000000     -1.691140000000000
H       1.597170000000000     14.256410000000001     -0.064530000000000

-C 0
6-31g(d,p)
****
-H 0
6-31g(d,p)
****
-Mg 0
6-31g(d,p)
****
-N 0
6-31+g(d,p)
****
-Na 0
6-31g(d,p)
****
-O 0
6-31+g(d,p)
****


