%chk=lowest10_c1_a2_speciation7_speciationDFT36_speciationDFT38_rank04_E221.49.chk
%nprocshared=20
%mem=40GB
#p opt=loose PM7/gen scf=xqc 

lowest10_c1_a2_speciation7_speciationDFT36_speciationDFT38_rank04_E221.49 DFT input

0 1
Mg      0.448750000000000      0.143360000000000     -0.896050000000000
C      -2.244310000000000     -1.130080000000000      0.500850000000000
C      -0.348960000000000     -2.521680000000000      0.948760000000000
O      -0.909790000000000     -1.480520000000000      0.178980000000000
C      -2.524280000000000     -0.904010000000000      1.988290000000000
C      -1.002860000000000     -3.865770000000000      0.669410000000000
H      -2.430620000000000     -0.158950000000000      0.001790000000000
H      -2.959660000000000     -1.851740000000000      0.057480000000000
H       0.713550000000000     -2.601370000000000      0.649350000000000
H      -0.317100000000000     -2.277730000000000      2.028870000000000
H      -0.441210000000000     -4.659580000000000      1.203830000000000
H      -0.985950000000000     -4.078350000000000     -0.419590000000000
H      -2.050820000000000     -3.862170000000000      1.027300000000000
H      -1.797030000000000     -0.196570000000000      2.419290000000000
H      -2.489210000000000     -1.861320000000000      2.546020000000000
H      -3.534550000000000     -0.464970000000000      2.110290000000000
H       0.463930000000000     -1.365340000000000     -3.093880000000000
C       2.595060000000000     -1.200390000000000     -2.601170000000000
C       1.185610000000000     -0.600490000000000     -2.743140000000000
C       2.733480000000000     -2.321440000000000     -1.551940000000000
H       2.909040000000000     -1.590480000000000     -3.591540000000000
H       3.292400000000000     -0.387450000000000     -2.305670000000000
H       3.791200000000000     -2.669590000000000     -1.550490000000000
H       2.517800000000000     -1.918560000000000     -0.541980000000000
C       1.843230000000000     -3.533750000000000     -1.824720000000000
H       1.200920000000000      0.245170000000000     -3.456930000000000
H       0.774820000000000     -3.246910000000000     -1.789020000000000
H       2.072380000000000     -3.971320000000000     -2.818280000000000
H       2.017690000000000     -4.308930000000000     -1.046380000000000
C       1.692840000000000     -0.375600000000000      2.801290000000000
C       2.539180000000000     -0.037170000000000      1.770450000000000
C       1.931010000000000      0.977670000000000      1.052420000000000
C       0.742130000000000      1.230020000000000      1.611040000000000
N       0.541910000000000      0.422410000000000      2.748350000000000
C      -0.285950000000000      2.201880000000000      1.094730000000000
N      -0.676500000000000      1.803440000000000     -0.263460000000000
C      -1.568000000000000      2.693420000000000     -1.045800000000000
H       3.491270000000000     -0.504930000000000      1.558760000000000
H       1.866890000000000     -1.147750000000000      3.537200000000000
H       2.325350000000000      1.445680000000000      0.158260000000000
H       0.144230000000000      3.220400000000000      1.110460000000000
H      -1.172340000000000      2.159390000000000      1.762060000000000
C      -0.854260000000000      4.016560000000000     -1.385670000000000
C      -1.946310000000000      1.983750000000000     -2.356430000000000
C      -2.867710000000000      2.999590000000000     -0.263460000000000
H       0.066000000000000      3.820240000000000     -1.974360000000000
H      -1.522310000000000      4.678510000000000     -1.979360000000000
H      -0.578670000000000      4.577530000000000     -0.469780000000000
H      -2.498090000000000      1.042090000000000     -2.151430000000000
H      -2.596890000000000      2.635190000000000     -2.982570000000000
H      -1.035240000000000      1.737000000000000     -2.940730000000000
H      -3.404760000000000      2.061580000000000     -0.007170000000000
H      -2.654880000000000      3.548610000000000      0.676320000000000
H      -3.553330000000000      3.634020000000000     -0.867300000000000
Na     -1.089930000000000      8.890530000000000      4.002570000000000
C      -2.393770000000000      6.196310000000000      2.887310000000000
C      -2.536420000000000      7.743110000000000      1.130190000000000
O      -2.569120000000000      7.553970000000000      2.531970000000000
C      -0.914830000000000      5.867570000000000      3.064010000000000
C      -3.932050000000000      7.619590000000000      0.524120000000000
H      -2.906490000000000      6.029960000000000      3.858290000000000
H      -2.871370000000000      5.498910000000000      2.164320000000000
H      -2.159580000000000      8.770260000000000      0.937190000000000
H      -1.828940000000000      7.052050000000000      0.620240000000000
H      -4.617740000000000      8.369460000000000      0.970670000000000
H      -3.875290000000000      7.801270000000000     -0.569430000000000
H      -4.345060000000000      6.604020000000000      0.694130000000000
H      -0.468750000000000      6.520830000000000      3.843170000000000
H      -0.805500000000000      4.808800000000000      3.378000000000000
H      -0.364980000000000      6.012790000000000      2.111990000000000
C       1.343170000000000      8.914249999999999      1.685990000000000
C       1.855050000000000     10.375890000000000      3.499830000000000
O       0.886450000000000      9.563760000000000      2.859260000000000
C       2.476790000000000      7.918300000000000      1.933070000000000
C       2.323160000000000     11.556010000000001      2.648620000000000
H       0.483650000000000      8.328870000000000      1.297020000000000
H       1.594660000000000      9.638999999999999      0.884870000000000
H       1.361050000000000     10.804840000000000      4.398220000000000
H       2.706520000000000      9.779080000000000      3.887100000000000
H       1.448080000000000     12.141470000000000      2.296080000000000
H       2.974870000000000     12.213720000000000      3.261210000000000
H       2.916360000000000     11.208200000000000      1.778910000000000
H       2.182040000000000      7.189850000000000      2.717460000000000
H       2.689440000000000      7.367860000000000      0.992490000000000
H       3.407320000000000      8.439710000000000      2.235300000000000
Na     -4.544820000000000      8.658630000000000      3.309180000000000
C      -3.077270000000000     10.169980000000001      5.880080000000000
C      -3.096240000000000     11.516230000000000      3.966920000000000
O      -3.079710000000000     10.195040000000001      4.468180000000000
C      -3.422990000000000      8.761530000000000      6.346380000000000
C      -1.714050000000000     12.165640000000000      4.016060000000000
H      -2.064430000000000     10.414960000000001      6.260070000000000
H      -3.835940000000000     10.859240000000000      6.314710000000000
H      -3.404110000000000     11.457110000000000      2.900970000000000
H      -3.859790000000000     12.148370000000000      4.471700000000000
H      -0.982310000000000     11.548290000000000      3.455510000000000
H      -1.763510000000000     13.171150000000001      3.548080000000000
H      -1.368530000000000     12.285679999999999      5.063180000000000
H      -2.692260000000000      8.031100000000000      5.937730000000000
H      -3.396000000000000      8.713460000000000      7.455420000000000
H      -4.440670000000000      8.482960000000000      6.001910000000000
C      -7.528290000000000      9.193140000000000      4.650450000000000
C      -7.141170000000000      6.913960000000000      4.515500000000000
O      -6.584200000000000      8.194850000000001      4.347750000000000
C      -6.873810000000000     10.549140000000000      4.421720000000000
C      -6.063000000000000      5.884850000000000      4.202630000000000
H      -8.414180000000000      9.120520000000001      3.979900000000000
H      -7.834730000000000      9.133530000000000      5.718850000000000
H      -7.470130000000000      6.759200000000000      5.567770000000000
H      -7.987110000000000      6.755140000000000      3.809380000000000
H      -5.202660000000000      6.018150000000000      4.892940000000000
H      -6.466300000000000      4.858160000000000      4.324080000000000
H      -5.706530000000000      6.011740000000000      3.157330000000000
H      -6.552820000000000     10.644500000000001      3.361870000000000
H      -7.587570000000000     11.365100000000000      4.658250000000000
H      -5.982480000000000     10.652290000000001      5.074680000000000
Mg      1.635810000000000     15.799880000000000      8.329829999999999
C       2.694690000000000     13.360590000000000     11.141560000000000
C       0.586590000000000     14.144170000000001     11.651100000000000
O       1.860160000000000     14.501720000000001     11.155279999999999
C       4.147340000000000     13.797650000000001     11.034340000000000
C      -0.348640000000000     15.341480000000001     11.558830000000000
H       2.607880000000000     12.768319999999999     12.080610000000000
H       2.448740000000000     12.717100000000000     10.270280000000000
H       0.144320000000000     13.311859999999999     11.060850000000000
H       0.655120000000000     13.849060000000000     12.720780000000000
H      -0.457830000000000     15.666969999999999     10.504550000000000
H      -1.350210000000000     15.066290000000000     11.952010000000000
H       0.053980000000000     16.184570000000001     12.158300000000001
H       4.418920000000000     14.438079999999999     11.898560000000000
H       4.809050000000000     12.906950000000000     11.011810000000001
H       4.311350000000000     14.373049999999999     10.109710000000000
H       0.685130000000000     18.095359999999999     10.516180000000000
C       0.273830000000000     18.486519999999999      8.400270000000001
C       1.183320000000000     18.016960000000001      9.529010000000000
C      -1.011660000000000     17.652480000000001      8.333650000000000
H       0.025370000000000     19.553049999999999      8.579730000000000
H       0.817610000000000     18.398499999999999      7.433560000000000
H      -0.768780000000000     16.593139999999998      8.098300000000000
H      -1.533800000000000     17.687889999999999      9.313710000000000
C      -1.956370000000000     18.193890000000000      7.264380000000000
H       2.134320000000000     18.588090000000001      9.531290000000000
H      -2.228970000000000     19.245480000000001      7.497750000000000
H      -1.477260000000000     18.154769999999999      6.263070000000000
H      -2.885150000000000     17.585619999999999      7.240980000000000
C      -0.473910000000000     13.444360000000000      8.492340000000000
C      -0.383000000000000     12.107870000000000      8.144880000000001
C       0.896630000000000     11.910270000000001      7.647010000000000
C       1.539070000000000     13.125480000000000      7.735300000000000
N       0.697320000000000     14.040350000000000      8.241759999999999
C       2.960760000000000     13.473200000000000      7.332150000000000
N       3.349300000000000     14.797890000000001      7.874880000000000
C       4.494640000000000     15.515890000000001      7.283980000000000
H      -1.161480000000000     11.366460000000000      8.243660000000000
H      -1.342390000000000     13.939690000000001      8.911920000000000
H       1.313850000000000     10.982070000000000      7.278340000000000
H       3.651490000000000     12.714580000000000      7.754990000000000
H       3.009750000000000     13.444699999999999      6.225110000000000
C       4.130920000000000     16.072389999999999      5.897290000000000
C       4.854130000000000     16.700150000000001      8.204670000000000
C       5.720960000000000     14.585170000000000      7.188820000000000
H       3.269860000000000     16.770800000000001      5.976250000000000
H       4.993640000000000     16.627640000000000      5.468280000000000
H       3.865070000000000     15.261540000000000      5.191090000000000
H       5.131510000000000     16.351099999999999      9.221439999999999
H       5.718310000000000     17.269359999999999      7.796430000000000
H       3.996180000000000     17.398140000000001      8.302560000000000
H       5.975910000000000     14.181860000000000      8.193289999999999
H       5.522480000000000     13.731130000000000      6.508770000000000
H       6.603890000000000     15.134190000000000      6.797960000000000

-C 0
6-31g(d,p)
****
-H 0
6-31g(d,p)
****
-Mg 0
6-31g(d,p)
****
-N 0
6-31+g(d,p)
****
-Na 0
6-31g(d,p)
****
-O 0
6-31+g(d,p)
****


