%chk=lowest10_c1_a2_speciation0_speciationDFT37b_speciationDFT96_rank07_E169.04.chk
%nprocshared=20
%mem=40GB
#p opt=loose PM7/gen scf=xqc 

lowest10_c1_a2_speciation0_speciationDFT37b_speciationDFT96_rank07_E169.04 DFT input

0 1
Mg     -0.028380000000000      0.311880000000000     -0.374510000000000
C       3.071720000000000      1.138090000000000      1.011250000000000
C       1.254340000000000      1.292610000000000      2.551370000000000
O       1.731990000000000      0.796380000000000      1.315020000000000
C       4.091670000000000      0.510290000000000      1.955210000000000
C       1.198860000000000      2.816390000000000      2.618380000000000
H       3.272690000000000      0.736070000000000     -0.005400000000000
H       3.219610000000000      2.232110000000000      0.935320000000000
H       0.208120000000000      0.939950000000000      2.646030000000000
H       1.790030000000000      0.848130000000000      3.414610000000000
H       0.653060000000000      3.218580000000000      1.739650000000000
H       0.663720000000000      3.119820000000000      3.542270000000000
H       2.218920000000000      3.246400000000000      2.655220000000000
H       3.948490000000000     -0.587510000000000      2.011090000000000
H       5.112810000000000      0.719020000000000      1.572790000000000
H       4.005330000000000      0.950490000000000      2.967100000000000
H       1.823870000000000      1.524820000000000     -2.343220000000000
C       1.133560000000000      3.360210000000000     -1.354990000000000
C       0.899310000000000      1.982290000000000     -1.934590000000000
C       1.591660000000000      4.299170000000000     -2.457270000000000
H       0.193770000000000      3.736670000000000     -0.901180000000000
H       1.903880000000000      3.297560000000000     -0.562050000000000
H       2.530680000000000      3.905720000000000     -2.904110000000000
H       0.806670000000000      4.346960000000000     -3.243150000000000
C       1.841260000000000      5.694290000000000     -1.907650000000000
H       0.067170000000000      1.972280000000000     -2.668630000000000
H       0.907910000000000      6.104340000000000     -1.465990000000000
H       2.632830000000000      5.662680000000000     -1.128630000000000
H       2.171960000000000      6.354250000000000     -2.734810000000000
C      -1.560420000000000     -4.345550000000000     -0.623460000000000
C      -2.821730000000000     -3.867800000000000     -0.879010000000000
C      -2.990780000000000     -2.710130000000000     -0.129180000000000
C      -1.860550000000000     -2.476830000000000      0.549150000000000
N      -0.925850000000000     -3.497180000000000      0.287650000000000
C      -1.556690000000000     -1.364870000000000      1.531370000000000
N      -1.473730000000000     -0.000660000000000      0.977330000000000
C      -2.629740000000000      0.856180000000000      0.682820000000000
H      -3.537860000000000     -4.330270000000000     -1.544210000000000
H      -1.110440000000000     -5.234130000000000     -1.046900000000000
H      -3.895790000000000     -2.126870000000000     -0.105110000000000
H      -0.542720000000000     -1.579740000000000      1.932820000000000
H      -2.240760000000000     -1.406500000000000      2.396590000000000
C      -3.807170000000000      0.534100000000000      1.605960000000000
C      -2.193530000000000      2.312890000000000      0.935570000000000
C      -3.018020000000000      0.742740000000000     -0.805800000000000
H      -3.480540000000000      0.632350000000000      2.664570000000000
H      -4.648320000000000      1.231280000000000      1.422150000000000
H      -4.165220000000000     -0.498280000000000      1.438340000000000
H      -1.328460000000000      2.575200000000000      0.293970000000000
H      -3.016070000000000      3.024320000000000      0.706940000000000
H      -1.882550000000000      2.457150000000000      1.992120000000000
H      -2.184890000000000      1.079340000000000     -1.462380000000000
H      -3.260920000000000     -0.287930000000000     -1.099350000000000
H      -3.900880000000000      1.380410000000000     -1.024310000000000
C       1.042820000000000     -2.195250000000000     -1.968520000000000
C       2.000390000000000     -2.241070000000000      0.188530000000000
O       1.444810000000000     -1.444810000000000     -0.839320000000000
C      -0.233790000000000     -1.598230000000000     -2.565740000000000
C       3.422740000000000     -2.644680000000000     -0.138190000000000
H       1.845540000000000     -2.137830000000000     -2.730760000000000
H       0.837400000000000     -3.262520000000000     -1.736980000000000
H       1.999900000000000     -1.644940000000000      1.122610000000000
H       1.401180000000000     -3.135000000000000      0.425600000000000
H       4.035580000000000     -1.740570000000000     -0.330280000000000
H       3.844820000000000     -3.206780000000000      0.720220000000000
H       3.422880000000000     -3.296380000000000     -1.035150000000000
H      -1.070470000000000     -1.639450000000000     -1.845110000000000
H      -0.083830000000000     -0.537570000000000     -2.850620000000000
H      -0.529330000000000     -2.169390000000000     -3.469750000000000
Na      7.048360000000000     -6.394300000000000     11.066179999999999
C       7.137230000000000     -3.616910000000000      9.321099999999999
C       5.065190000000000     -4.608280000000000      9.151790000000000
O       6.456050000000000     -4.822900000000000      9.047950000000000
C       8.635610000000000     -3.851910000000000      9.191360000000000
C       4.334280000000000     -5.912440000000000      8.867830000000000
H       6.852570000000000     -2.825410000000000      8.590370000000000
H       6.934940000000000     -3.276560000000000     10.362220000000001
H       4.790010000000000     -4.280700000000000     10.180490000000001
H       4.727190000000000     -3.863750000000000      8.398009999999999
H       4.638100000000000     -6.689330000000000      9.601120000000000
H       3.237920000000000     -5.752340000000000      8.947160000000000
H       4.571570000000000     -6.267690000000000      7.842480000000000
H       8.882940000000000     -4.183720000000000      8.160500000000001
H       9.183820000000001     -2.910300000000000      9.406520000000000
H       8.964240000000000     -4.631110000000000      9.911659999999999
Na      6.827140000000000     -5.179630000000000      6.462520000000000
Mg      2.844110000000000      0.579800000000000      9.222670000000001
C       4.741170000000000      1.555890000000000     11.634000000000000
C       2.796320000000000      0.446130000000000     12.449350000000001
O       3.344600000000000      1.355210000000000     11.516480000000000
C       5.576050000000000      0.289830000000000     11.435300000000000
C       2.756250000000000      1.023570000000000     13.857049999999999
H       5.019770000000000      2.246680000000000     10.814590000000001
H       5.004880000000000      2.089780000000000     12.568730000000000
H       1.746570000000000      0.262490000000000     12.133010000000001
H       3.284010000000000     -0.549250000000000     12.419490000000000
H       2.242410000000000      2.007780000000000     13.842250000000000
H       2.199730000000000      0.331410000000000     14.522290000000000
H       3.783190000000000      1.143910000000000     14.256220000000001
H       5.252680000000000     -0.247600000000000     10.522520000000000
H       6.644860000000000      0.569820000000000     11.328569999999999
H       5.487110000000000     -0.384440000000000     12.309559999999999
H       3.495190000000000     -1.864830000000000      8.541600000000001
C       1.359530000000000     -1.916080000000000      8.949320000000000
C       2.774960000000000     -1.506050000000000      9.302650000000000
C       0.935340000000000     -1.275880000000000      7.623070000000000
H       1.330500000000000     -3.022880000000000      8.882660000000000
H       0.666680000000000     -1.575890000000000      9.750859999999999
H       0.886790000000000     -0.172210000000000      7.741770000000000
H       1.674780000000000     -1.509700000000000      6.827780000000000
C      -0.426580000000000     -1.795030000000000      7.181090000000000
H       3.063030000000000     -1.879540000000000     10.306450000000000
H      -0.367970000000000     -2.891900000000000      7.014420000000000
H      -1.197100000000000     -1.581220000000000      7.951710000000000
H      -0.721970000000000     -1.306320000000000      6.228920000000000
C      -0.063140000000000      2.501180000000000      7.553220000000000
C      -0.009090000000000      2.287420000000000      8.917700000000000
C       1.250680000000000      2.676850000000000      9.330050000000000
C       1.895280000000000      3.078930000000000      8.239400000000000
N       1.048870000000000      2.980110000000000      7.123830000000000
C       3.315890000000000      3.577810000000000      8.165770000000000
N       4.282550000000000      2.496610000000000      8.428419999999999
C       4.969960000000000      1.896520000000000      7.257570000000000
H      -0.796850000000000      1.879080000000000      9.540139999999999
H      -0.904840000000000      2.297990000000000      6.910270000000000
H       1.631880000000000      2.650570000000000     10.337899999999999
H       3.450390000000000      4.374950000000000      8.927400000000000
H       3.475240000000000      4.039990000000000      7.177650000000000
C       5.870750000000000      2.936870000000000      6.560650000000000
C       5.876110000000000      0.760270000000000      7.771840000000000
C       3.968450000000000      1.288160000000000      6.252620000000000
H       6.573360000000000      3.385320000000000      7.295260000000000
H       6.463950000000000      2.456790000000000      5.752840000000000
H       5.288870000000000      3.750140000000000      6.086980000000000
H       5.272530000000000     -0.039590000000000      8.246470000000000
H       6.447100000000000      0.295300000000000      6.937630000000000
H       6.603770000000000      1.143150000000000      8.519600000000001
H       3.368690000000000      0.485450000000000      6.731560000000000
H       3.276520000000000      2.054070000000000      5.851290000000000
H       4.510640000000000      0.840350000000000      5.391990000000000

-C 0
6-31g(d,p)
****
-H 0
6-31g(d,p)
****
-Mg 0
6-31g(d,p)
****
-N 0
6-31+g(d,p)
****
-Na 0
6-31g(d,p)
****
-O 0
6-31+g(d,p)
****


