%chk=lowest10_c1_a2_speciation0_speciationDFT0_speciationDFT2_rank03_E179.75.chk
%nprocshared=20
%mem=40GB
#p opt=loose PM7/gen scf=xqc 

lowest10_c1_a2_speciation0_speciationDFT0_speciationDFT2_rank03_E179.75 DFT input

0 1
Mg     -0.911160000000000     -0.174280000000000      0.053310000000000
H      -2.226720000000000      0.628700000000000     -2.537320000000000
C      -3.067000000000000      2.122690000000000     -1.152880000000000
C      -2.650330000000000      0.704350000000000     -1.515270000000000
C      -1.891980000000000      3.113050000000000     -1.078720000000000
H      -3.816440000000000      2.467750000000000     -1.894100000000000
H      -3.545040000000000      2.096320000000000     -0.149640000000000
H      -2.309880000000000      4.112240000000000     -0.827210000000000
H      -1.192320000000000      2.820960000000000     -0.266860000000000
C      -1.105670000000000      3.230630000000000     -2.382860000000000
H      -3.486880000000000     -0.013330000000000     -1.391360000000000
H      -0.588010000000000      2.276390000000000     -2.614010000000000
H      -1.781800000000000      3.501510000000000     -3.220000000000000
H      -0.330910000000000      4.019710000000000     -2.276830000000000
C      -0.002810000000000      1.901400000000000      2.280210000000000
C       1.119130000000000      1.936420000000000      3.092830000000000
C       1.887760000000000      0.830520000000000      2.764350000000000
C       1.213990000000000      0.178280000000000      1.758740000000000
N       0.073650000000000      0.827730000000000      1.480240000000000
C       1.619940000000000     -1.095950000000000      1.045390000000000
N       0.760690000000000     -1.309630000000000     -0.136910000000000
C       0.977810000000000     -2.465910000000000     -1.025620000000000
H       1.349760000000000      2.678490000000000      3.843910000000000
H      -0.819230000000000      2.614000000000000      2.283290000000000
H       2.833620000000000      0.537890000000000      3.199540000000000
H       1.513190000000000     -1.930810000000000      1.768850000000000
H       2.671930000000000     -0.996270000000000      0.721910000000000
C       0.925410000000000     -3.787670000000000     -0.238180000000000
C      -0.125380000000000     -2.482400000000000     -2.100250000000000
C       2.341530000000000     -2.320920000000000     -1.728290000000000
H      -0.053520000000000     -3.894720000000000      0.276310000000000
H       1.063090000000000     -4.653120000000000     -0.921940000000000
H       1.734660000000000     -3.830170000000000      0.518320000000000
H      -0.123680000000000     -1.536370000000000     -2.683490000000000
H       0.033710000000000     -3.325820000000000     -2.809460000000000
H      -1.127580000000000     -2.604980000000000     -1.636750000000000
H       2.373870000000000     -1.372190000000000     -2.308070000000000
H       3.173960000000000     -2.309770000000000     -0.996380000000000
H       2.521090000000000     -3.167430000000000     -2.423850000000000
Na      2.339220000000000    -10.925670000000000      5.681000000000000
C       1.445290000000000    -13.992970000000000      6.307410000000000
C       0.003720000000000    -12.513620000000000      7.328080000000000
O       1.360370000000000    -12.853000000000000      7.135660000000000
C       2.909750000000000    -14.358029999999999      6.108710000000000
C      -0.081120000000000    -11.275930000000001      8.210080000000000
H       0.939590000000000    -14.865100000000000      6.781240000000000
H       1.007910000000000    -13.785679999999999      5.304230000000000
H      -0.486240000000000    -12.271739999999999      6.357350000000000
H      -0.538800000000000    -13.337700000000000      7.845240000000000
H       0.438990000000000    -10.423080000000001      7.724140000000000
H      -1.145410000000000    -11.002000000000001      8.370880000000000
H       0.390600000000000    -11.476710000000001      9.195670000000000
H       3.384010000000000    -14.583920000000001      7.087420000000000
H       2.988210000000000    -15.254090000000000      5.457030000000000
H       3.452020000000000    -13.516330000000000      5.627850000000000
Na      2.128540000000000    -13.738310000000000      9.497840000000000
Mg      0.831820000000000     -6.102450000000000      6.483440000000000
H      -0.221460000000000     -3.831630000000000      8.405279999999999
C       0.381050000000000     -2.604880000000000      6.692070000000000
C       0.547900000000000     -3.806890000000000      7.607100000000000
C      -0.989140000000000     -2.565530000000000      6.001350000000000
H       0.500630000000000     -1.689210000000000      7.307850000000000
H       1.181570000000000     -2.615780000000000      5.922060000000000
H      -1.799510000000000     -2.544070000000000      6.762310000000000
H      -1.039280000000000     -1.626690000000000      5.410450000000000
C      -1.221790000000000     -3.736770000000000      5.044470000000000
H       1.564240000000000     -3.814010000000000      8.056710000000001
H      -1.269950000000000     -4.696970000000000      5.596770000000000
H      -2.189230000000000     -3.589980000000000      4.517390000000000
H      -0.413320000000000     -3.787920000000000      4.284040000000000
C      -1.874830000000000     -7.763240000000000      6.370070000000000
C      -2.283040000000000     -8.803640000000000      5.551400000000000
C      -1.245200000000000     -9.052410000000000      4.666140000000000
C      -0.258280000000000     -8.140639999999999      4.968570000000000
N      -0.640770000000000     -7.381640000000000      6.004580000000000
C       1.086980000000000     -7.967130000000000      4.289680000000000
N       1.724540000000000     -6.719300000000000      4.760360000000000
C       3.026230000000000     -6.283410000000000      4.224440000000000
H      -3.229140000000000     -9.325690000000000      5.594970000000000
H      -2.442620000000000     -7.320730000000000      7.178390000000000
H      -1.219300000000000     -9.799759999999999      3.885000000000000
H       1.709800000000000     -8.850920000000000      4.533600000000000
H       0.921270000000000     -7.905870000000000      3.197890000000000
C       2.886420000000000     -5.958270000000000      2.724450000000000
C       3.455000000000000     -5.001390000000000      4.960450000000000
C       4.099950000000000     -7.364960000000000      4.437830000000000
H       2.112650000000000     -5.173620000000000      2.576300000000000
H       3.847630000000000     -5.588130000000000      2.308570000000000
H       2.592230000000000     -6.853640000000000      2.140630000000000
H       3.573860000000000     -5.191530000000000      6.048560000000000
H       4.425660000000000     -4.628100000000000      4.564150000000000
H       2.697460000000000     -4.200500000000000      4.825960000000000
H       4.202460000000000     -7.600020000000000      5.518840000000000
H       3.841770000000000     -8.296170000000000      3.892900000000000
H       5.083660000000000     -7.015450000000000      4.056200000000000

-C 0
6-31g(d,p)
****
-H 0
6-31g(d,p)
****
-Mg 0
6-31g(d,p)
****
-N 0
6-31+g(d,p)
****
-Na 0
6-31g(d,p)
****
-O 0
6-31+g(d,p)
****


