%chk=lowest10_c1_a2_speciation7_speciationDFT2_speciationDFT36_rank01_E223.53.chk
%nprocshared=20
%mem=40GB
#p opt=loose PM7/gen scf=xqc 

lowest10_c1_a2_speciation7_speciationDFT2_speciationDFT36_rank01_E223.53 DFT input

0 1
Mg     -0.026710000000000     -0.763180000000000      0.087830000000000
C       1.505840000000000      2.604900000000000     -0.582290000000000
C       0.999930000000000      1.626420000000000     -2.608770000000000
O       1.509350000000000      1.392610000000000     -1.311180000000000
C       2.424310000000000      2.478420000000000      0.623770000000000
C       0.913760000000000      0.310410000000000     -3.370840000000000
H       1.889110000000000      3.456510000000000     -1.187480000000000
H       0.480410000000000      2.837150000000000     -0.227780000000000
H      -0.014920000000000      2.074640000000000     -2.567620000000000
H       1.673330000000000      2.303380000000000     -3.175780000000000
H       0.225850000000000     -0.393750000000000     -2.860620000000000
H       0.531660000000000      0.496410000000000     -4.396890000000000
H       1.919440000000000     -0.153840000000000     -3.440610000000000
H       3.457550000000000      2.243500000000000      0.297340000000000
H       2.421330000000000      3.426130000000000      1.201130000000000
H       2.085890000000000      1.672890000000000      1.290710000000000
H       1.855970000000000     -2.261950000000000     -2.000790000000000
C       0.266480000000000     -3.496290000000000     -1.100180000000000
C       1.392480000000000     -2.472690000000000     -1.017530000000000
C      -0.845480000000000     -3.043650000000000     -2.056650000000000
H       0.704340000000000     -4.451760000000000     -1.452730000000000
H      -0.166670000000000     -3.645080000000000     -0.085740000000000
H      -1.330510000000000     -2.117970000000000     -1.674690000000000
H      -0.415580000000000     -2.831220000000000     -3.058600000000000
C      -1.904570000000000     -4.133140000000000     -2.208830000000000
H       2.153270000000000     -2.764640000000000     -0.265260000000000
H      -1.438760000000000     -5.059140000000000     -2.609160000000000
H      -2.378570000000000     -4.358420000000000     -1.229910000000000
H      -2.691100000000000     -3.800270000000000     -2.918720000000000
C      -2.093300000000000      0.958150000000000     -1.577300000000000
C      -2.836850000000000      2.071090000000000     -1.226960000000000
C      -2.545840000000000      2.344120000000000      0.101660000000000
C      -1.629070000000000      1.399090000000000      0.500390000000000
N      -1.358740000000000      0.578770000000000     -0.524030000000000
C      -0.998820000000000      1.220500000000000      1.870370000000000
N       0.159880000000000      0.299750000000000      1.804520000000000
C       0.666310000000000     -0.315570000000000      3.047840000000000
H      -3.513970000000000      2.617400000000000     -1.866610000000000
H      -2.082040000000000      0.472220000000000     -2.546810000000000
H      -2.947500000000000      3.145090000000000      0.706450000000000
H      -0.643680000000000      2.202150000000000      2.243320000000000
H      -1.792010000000000      0.827860000000000      2.536000000000000
C      -0.307880000000000     -1.385410000000000      3.572350000000000
C       2.016560000000000     -0.996930000000000      2.744290000000000
C       0.898190000000000      0.769870000000000      4.117820000000000
H      -0.435940000000000     -2.196420000000000      2.823330000000000
H       0.087260000000000     -1.835020000000000      4.509800000000000
H      -1.301960000000000     -0.955170000000000      3.802130000000000
H       2.764520000000000     -0.265860000000000      2.372230000000000
H       2.433870000000000     -1.471310000000000      3.660170000000000
H       1.893670000000000     -1.786930000000000      1.974390000000000
H       1.591600000000000      1.547940000000000      3.730250000000000
H      -0.056730000000000      1.260610000000000      4.397990000000000
H       1.340160000000000      0.332470000000000      5.037710000000000
Na     -1.895170000000000      7.922900000000000     -5.301920000000000
C       1.012330000000000      8.511820000000000     -6.480310000000000
C       0.909700000000000      6.186910000000000     -6.182170000000000
O       0.505050000000000      7.451560000000000     -5.693200000000000
C       0.051760000000000      8.854310000000000     -7.614890000000000
C       2.227660000000000      5.746350000000000     -5.549860000000000
H       1.110490000000000      9.404000000000000     -5.826210000000000
H       2.032720000000000      8.304580000000000     -6.874250000000000
H       0.124780000000000      5.450890000000000     -5.905800000000000
H       0.982670000000000      6.159680000000000     -7.292080000000000
H       2.129450000000000      5.687470000000000     -4.445980000000000
H       2.501670000000000      4.741190000000000     -5.933030000000000
H       3.041040000000000      6.456810000000000     -5.804020000000000
H      -0.942020000000000      9.132370000000000     -7.205590000000000
H       0.452950000000000      9.712070000000001     -8.193770000000001
H      -0.068100000000000      7.990080000000000     -8.299490000000000
C      -2.790120000000000      6.008900000000000     -7.915430000000000
C      -4.687950000000000      6.683900000000000     -6.640310000000000
O      -3.275840000000000      6.607740000000000     -6.727240000000000
C      -3.145190000000000      6.782370000000000     -9.185779999999999
C      -5.372830000000000      5.317620000000000     -6.607350000000000
H      -1.682650000000000      6.012810000000000     -7.838070000000000
H      -3.078130000000000      4.940040000000000     -7.985820000000000
H      -4.916370000000000      7.180560000000000     -5.672910000000000
H      -5.116960000000000      7.345990000000000     -7.420670000000000
H      -4.933750000000000      4.691290000000000     -5.802470000000000
H      -6.455980000000000      5.455620000000000     -6.407330000000000
H      -5.273590000000000      4.799180000000000     -7.582270000000000
H      -2.817710000000000      7.839410000000000     -9.094340000000001
H      -2.627260000000000      6.318120000000000    -10.051200000000000
H      -4.234920000000000      6.743040000000000     -9.385809999999999
Na      1.016980000000000      7.455650000000000     -3.356300000000000
C      -1.895010000000000      8.739229999999999     -2.391740000000000
C      -1.910210000000000      6.397860000000000     -2.367540000000000
O      -1.369540000000000      7.559430000000000     -2.964580000000000
C      -1.021360000000000      9.916490000000000     -2.808130000000000
C      -3.302860000000000      6.075560000000000     -2.905450000000000
H      -2.922480000000000      8.924130000000000     -2.771920000000000
H      -1.893210000000000      8.702800000000000     -1.279150000000000
H      -1.241290000000000      5.550810000000000     -2.632350000000000
H      -1.907330000000000      6.454150000000000     -1.256580000000000
H      -3.269540000000000      5.964290000000000     -4.008820000000000
H      -3.657950000000000      5.122410000000000     -2.461700000000000
H      -4.024640000000000      6.874010000000000     -2.638200000000000
H      -0.986520000000000      9.998430000000001     -3.915710000000000
H      -1.434190000000000     10.859030000000001     -2.391810000000000
H       0.011620000000000      9.780770000000000     -2.425210000000000
C       2.373000000000000      8.243720000000000     -0.437440000000000
C       3.437980000000000      9.421630000000000     -2.123220000000000
O       2.368780000000000      8.563420000000001     -1.807650000000000
C       1.213920000000000      7.292750000000000     -0.168700000000000
C       3.357860000000000      9.750940000000000     -3.607990000000000
H       3.316540000000000      7.726340000000000     -0.151630000000000
H       2.220360000000000      9.157539999999999      0.179600000000000
H       3.362310000000000     10.375640000000001     -1.554380000000000
H       4.414820000000000      8.923240000000000     -1.931170000000000
H       2.391360000000000     10.251189999999999     -3.831980000000000
H       4.188760000000000     10.427890000000000     -3.895920000000000
H       3.426600000000000      8.818550000000000     -4.209430000000000
H       1.332140000000000      6.365440000000000     -0.770180000000000
H       1.179310000000000      7.023680000000000      0.907210000000000
H       0.256070000000000      7.779010000000000     -0.447220000000000
Mg     -2.411420000000000     15.039320000000000     -7.804130000000000
H      -1.395830000000000     14.827830000000001    -10.696770000000001
C       0.189400000000000     16.049209999999999     -9.794790000000001
C      -1.274720000000000     15.689380000000000    -10.009250000000000
C       0.994270000000000     14.946120000000001     -9.087940000000000
H       0.645230000000000     16.287520000000001    -10.778300000000000
H       0.231580000000000     16.958800000000000     -9.157120000000001
H       2.041440000000000     15.305529999999999     -8.985609999999999
H       0.589300000000000     14.770930000000000     -8.068709999999999
C       1.011190000000000     13.618860000000000     -9.844860000000001
H      -1.843660000000000     16.557120000000001    -10.400990000000000
H      -0.005550000000000     13.175640000000000     -9.882999999999999
H       1.393330000000000     13.765079999999999    -10.876700000000000
H       1.673350000000000     12.901560000000000     -9.315070000000000
C      -0.459230000000000     15.085300000000000     -5.299260000000000
C      -0.556190000000000     14.502900000000000     -4.046160000000000
C      -1.748910000000000     13.796110000000001     -4.020440000000000
C      -2.317870000000000     13.960279999999999     -5.263800000000000
N      -1.540870000000000     14.748720000000000     -6.019510000000000
C      -3.627610000000000     13.385949999999999     -5.770500000000000
N      -3.736700000000000     13.604690000000000     -7.228760000000000
C      -4.912640000000000     13.132230000000000     -7.981060000000000
H       0.158350000000000     14.587389999999999     -3.238900000000000
H       0.346280000000000     15.715579999999999     -5.654100000000000
H      -2.148560000000000     13.221190000000000     -3.196670000000000
H      -4.452130000000000     13.890319999999999     -5.225590000000000
H      -3.637410000000000     12.299519999999999     -5.561750000000000
C      -6.212520000000000     13.723570000000000     -7.406210000000000
C      -4.768030000000000     13.579599999999999     -9.447380000000001
C      -4.965260000000000     11.592240000000000     -7.942940000000000
H      -6.177810000000000     14.833750000000000     -7.432210000000000
H      -7.088790000000000     13.383070000000000     -7.999440000000000
H      -6.372010000000000     13.395379999999999     -6.358690000000000
H      -3.833560000000000     13.175500000000000     -9.893219999999999
H      -5.627220000000000     13.215850000000000    -10.054220000000001
H      -4.737360000000000     14.687920000000000     -9.520200000000001
H      -4.027920000000000     11.166290000000000     -8.364030000000000
H      -5.083360000000000     11.217630000000000     -6.905990000000000
H      -5.822560000000000     11.211320000000001     -8.537649999999999

-C 0
6-31g(d,p)
****
-H 0
6-31g(d,p)
****
-Mg 0
6-31g(d,p)
****
-N 0
6-31+g(d,p)
****
-Na 0
6-31g(d,p)
****
-O 0
6-31+g(d,p)
****


