%chk=lowest10_c1_a2_speciation7_speciationDFT1_speciationDFT36_rank09_E223.10.chk
%nprocshared=20
%mem=40GB
#p opt=loose PM7/gen scf=xqc 

lowest10_c1_a2_speciation7_speciationDFT1_speciationDFT36_rank09_E223.10 DFT input

0 1
Mg      0.706550000000000      0.402420000000000     -0.045690000000000
C      -1.717700000000000     -2.472710000000000     -0.102740000000000
C      -0.552820000000000     -2.550720000000000      1.886410000000000
O      -0.447970000000000     -2.306870000000000      0.498180000000000
C      -1.552670000000000     -2.642300000000000     -1.605190000000000
C       0.788820000000000     -2.285220000000000      2.556830000000000
H      -2.237830000000000     -3.383920000000000      0.266680000000000
H      -2.352920000000000     -1.583490000000000      0.089040000000000
H      -1.314480000000000     -1.892090000000000      2.353900000000000
H      -0.823130000000000     -3.610900000000000      2.076420000000000
H       1.091530000000000     -1.227100000000000      2.422400000000000
H       0.711650000000000     -2.494990000000000      3.644690000000000
H       1.568270000000000     -2.942620000000000      2.118600000000000
H      -0.920560000000000     -3.526090000000000     -1.825570000000000
H      -2.546000000000000     -2.765020000000000     -2.082410000000000
H      -1.071650000000000     -1.758900000000000     -2.048040000000000
H       3.167100000000000     -1.425830000000000      0.828850000000000
C       3.566860000000000      0.741570000000000      0.773020000000000
C       2.990630000000000     -0.541480000000000      0.186310000000000
C       2.984350000000000      1.045030000000000      2.160360000000000
H       4.666250000000000      0.617000000000000      0.842250000000000
H       3.337550000000000      1.590210000000000      0.090330000000000
H       1.890010000000000      1.232360000000000      2.087290000000000
H       3.151600000000000      0.179000000000000      2.835530000000000
C       3.658400000000000      2.270280000000000      2.773720000000000
H       3.351980000000000     -0.713860000000000     -0.847940000000000
H       4.750530000000000      2.090640000000000      2.872170000000000
H       3.493050000000000      3.167110000000000      2.139640000000000
H       3.241860000000000      2.465380000000000      3.784570000000000
C      -1.207260000000000      0.662950000000000      2.459750000000000
C      -2.553560000000000      0.970840000000000      2.544410000000000
C      -2.992930000000000      1.202300000000000      1.249060000000000
C      -1.904200000000000      1.011470000000000      0.430120000000000
N      -0.839830000000000      0.677330000000000      1.172050000000000
C      -1.825040000000000      1.166150000000000     -1.078390000000000
N      -0.576520000000000      0.569210000000000     -1.607100000000000
C      -0.111250000000000      0.944070000000000     -2.957590000000000
H      -3.144920000000000      1.022210000000000      3.446900000000000
H      -0.548460000000000      0.427820000000000      3.288500000000000
H      -3.993050000000000      1.468730000000000      0.936960000000000
H      -2.685430000000000      0.647870000000000     -1.547430000000000
H      -1.877170000000000      2.252000000000000     -1.289340000000000
C       0.427140000000000      2.385740000000000     -2.976690000000000
C       1.033840000000000     -0.006210000000000     -3.364130000000000
C      -1.259290000000000      0.786300000000000     -3.974430000000000
H       1.289080000000000      2.488840000000000     -2.282700000000000
H       0.769580000000000      2.652000000000000     -4.000860000000000
H      -0.351880000000000      3.116590000000000     -2.685010000000000
H       0.696650000000000     -1.063750000000000     -3.378850000000000
H       1.410890000000000      0.242660000000000     -4.380930000000000
H       1.882910000000000      0.075340000000000     -2.653920000000000
H      -1.654560000000000     -0.252680000000000     -3.947850000000000
H      -2.091480000000000      1.483110000000000     -3.743950000000000
H      -0.908670000000000      1.002300000000000     -5.005580000000000
Na    -12.145370000000000     -8.841030000000000     -2.780410000000000
C     -12.899850000000001     -5.879840000000000     -3.705340000000000
C     -12.190009999999999     -5.682600000000000     -1.478170000000000
O     -12.854170000000000     -6.491190000000000     -2.430640000000000
C     -11.669269999999999     -6.247530000000000     -4.528320000000000
C     -13.168820000000000     -4.752780000000000     -0.765470000000000
H     -13.798990000000000     -6.261850000000000     -4.233720000000000
H     -13.022300000000000     -4.774870000000000     -3.647980000000000
H     -11.733090000000001     -6.357030000000000     -0.722870000000000
H     -11.351749999999999     -5.099550000000000     -1.920080000000000
H     -13.957220000000000     -5.339840000000000     -0.250130000000000
H     -12.621960000000000     -4.153790000000000     -0.007390000000000
H     -13.647650000000001     -4.059820000000000     -1.487520000000000
H     -11.599629999999999     -7.349550000000000     -4.642520000000000
H     -11.746359999999999     -5.787620000000000     -5.535340000000000
H     -10.746160000000000     -5.875770000000000     -4.038950000000000
C      -8.931540000000000     -8.052650000000000     -2.180490000000000
C      -9.239520000000001    -10.412649999999999     -2.321130000000000
O      -9.844590000000000     -9.134280000000000     -2.236160000000000
C      -8.063860000000000     -7.913370000000000     -3.431640000000000
C      -8.401339999999999    -10.773990000000000     -1.095200000000000
H      -9.544000000000000     -7.129200000000000     -2.112240000000000
H      -8.323050000000000     -8.073760000000000     -1.253270000000000
H     -10.069229999999999    -11.150130000000001     -2.371400000000000
H      -8.672169999999999    -10.542140000000000     -3.265940000000000
H      -9.006760000000000    -10.654059999999999     -0.172230000000000
H      -8.071140000000000    -11.830769999999999     -1.175900000000000
H      -7.493560000000000    -10.140599999999999     -1.033490000000000
H      -8.703600000000000     -7.866460000000000     -4.337830000000000
H      -7.471930000000000     -6.977880000000000     -3.361880000000000
H      -7.349790000000000     -8.756900000000000     -3.518660000000000
Na    -14.931270000000000     -7.135990000000000     -1.432890000000000
C     -14.724819999999999    -10.343040000000000     -2.292410000000000
C     -13.839860000000000     -9.941129999999999     -0.163080000000000
O     -14.088789999999999     -9.406689999999999     -1.447350000000000
C     -15.286009999999999     -9.606009999999999     -3.502090000000000
C     -12.604369999999999    -10.839050000000000     -0.148010000000000
H     -13.988070000000000    -11.090180000000000     -2.657570000000000
H     -15.577690000000000    -10.852029999999999     -1.789640000000000
H     -13.642720000000001     -9.083790000000000      0.515700000000000
H     -14.727650000000001    -10.464980000000001      0.255110000000000
H     -11.719840000000000    -10.277210000000000     -0.512480000000000
H     -12.407819999999999    -11.178080000000000      0.890660000000000
H     -12.758609999999999    -11.734629999999999     -0.783690000000000
H     -14.472220000000000     -9.074249999999999     -4.040220000000000
H     -15.763500000000001    -10.328300000000000     -4.197090000000000
H     -16.046990000000001     -8.865030000000001     -3.179650000000000
C     -18.181310000000000     -7.461390000000000     -0.867820000000000
C     -17.848790000000001     -5.969030000000000     -2.606860000000000
O     -17.234359999999999     -6.886360000000000     -1.735070000000000
C     -17.450350000000000     -8.418329999999999      0.064490000000000
C     -16.778729999999999     -5.408440000000000     -3.534140000000000
H     -18.675280000000001     -6.682550000000000     -0.244040000000000
H     -18.935220000000001     -8.046260000000000     -1.440970000000000
H     -18.618710000000000     -6.472390000000000     -3.233980000000000
H     -18.293890000000001     -5.121200000000000     -2.038960000000000
H     -16.314470000000000     -6.233010000000000     -4.116400000000000
H     -17.226880000000001     -4.677850000000000     -4.239060000000000
H     -15.988280000000000     -4.899820000000000     -2.940580000000000
H     -16.686039999999998     -7.867730000000000      0.654470000000000
H     -18.167800000000000     -8.899100000000001      0.761130000000000
H     -16.942769999999999     -9.207420000000001     -0.528030000000000
Mg     -7.306100000000000     -2.991800000000000      2.994220000000000
H      -4.695990000000000     -4.393870000000000      2.127780000000000
C      -5.775030000000000     -4.323210000000000      0.227670000000000
C      -5.723530000000000     -4.525230000000000      1.730530000000000
C      -4.912980000000000     -5.377070000000000     -0.460900000000000
H      -6.829690000000000     -4.408820000000000     -0.114340000000000
H      -5.405070000000000     -3.302090000000000     -0.011990000000000
H      -3.865350000000000     -5.288430000000000     -0.100320000000000
H      -5.296740000000000     -6.389290000000000     -0.206160000000000
C      -4.934260000000000     -5.204200000000000     -1.971910000000000
H      -6.143810000000000     -5.510280000000000      2.023360000000000
H      -5.971100000000000     -5.305640000000000     -2.354520000000000
H      -4.538920000000000     -4.205100000000000     -2.249820000000000
H      -4.298550000000000     -5.986270000000000     -2.436320000000000
C      -6.466690000000000     -2.479560000000000      6.008740000000000
C      -6.919190000000000     -1.568910000000000      6.949300000000000
C      -7.896980000000000     -0.803020000000000      6.332180000000000
C      -7.988990000000000     -1.268200000000000      5.038950000000000
N      -7.131770000000000     -2.282740000000000      4.859490000000000
C      -8.904439999999999     -0.769380000000000      3.934790000000000
N      -8.558710000000000     -1.428330000000000      2.657160000000000
C      -9.279210000000001     -1.110610000000000      1.411580000000000
H      -6.578870000000000     -1.474720000000000      7.971490000000000
H      -5.706320000000000     -3.235370000000000      6.159630000000000
H      -8.467040000000001      0.003780000000000      6.771800000000000
H      -8.766100000000000      0.323900000000000      3.835390000000000
H      -9.948510000000001     -1.000500000000000      4.229040000000000
C      -9.023780000000000      0.358250000000000      1.023750000000000
C      -8.741619999999999     -2.012630000000000      0.285700000000000
C     -10.787979999999999     -1.366810000000000      1.573540000000000
H      -7.933140000000000      0.537460000000000      0.898350000000000
H      -9.533130000000000      0.607990000000000      0.068730000000000
H      -9.404980000000000      1.052300000000000      1.799770000000000
H      -8.914249999999999     -3.084060000000000      0.523230000000000
H      -9.252580000000000     -1.784970000000000     -0.676510000000000
H      -7.651050000000000     -1.855450000000000      0.141950000000000
H     -10.970900000000000     -2.426000000000000      1.855880000000000
H     -11.222420000000000     -0.709330000000000      2.354110000000000
H     -11.322630000000000     -1.157030000000000      0.622140000000000

-C 0
6-31g(d,p)
****
-H 0
6-31g(d,p)
****
-Mg 0
6-31g(d,p)
****
-N 0
6-31+g(d,p)
****
-Na 0
6-31g(d,p)
****
-O 0
6-31+g(d,p)
****


