%chk=lowest10_c1_a2_speciation0_speciationDFT37b_speciationDFT96_rank01_E168.60.chk
%nprocshared=20
%mem=40GB
#p opt=loose PM7/gen scf=xqc 

lowest10_c1_a2_speciation0_speciationDFT37b_speciationDFT96_rank01_E168.60 DFT input

0 1
Mg     -0.140550000000000     -0.230930000000000     -0.380420000000000
C      -2.418060000000000      2.045600000000000      1.012070000000000
C      -1.643200000000000      0.393970000000000      2.548920000000000
O      -1.453050000000000      1.053910000000000      1.311680000000000
C      -2.381570000000000      3.242620000000000      1.957550000000000
C      -2.934150000000000     -0.417550000000000      2.616930000000000
H      -2.172420000000000      2.421760000000000     -0.004530000000000
H      -3.440030000000000      1.627680000000000      0.937690000000000
H      -0.812840000000000     -0.333140000000000      2.648100000000000
H      -1.530000000000000      1.083580000000000      3.408540000000000
H      -3.007490000000000     -1.093930000000000      1.740230000000000
H      -2.930180000000000     -1.029600000000000      3.542880000000000
H      -3.817880000000000      0.249400000000000      2.650560000000000
H      -1.359280000000000      3.667960000000000      2.009890000000000
H      -3.074040000000000      4.022420000000000      1.576730000000000
H      -2.716510000000000      2.950570000000000      2.972330000000000
H      -2.132550000000000      0.770200000000000     -2.348720000000000
C      -3.373340000000000     -0.745010000000000     -1.358540000000000
C      -2.063000000000000     -0.258440000000000     -1.938580000000000
C      -4.417300000000000     -0.818310000000000     -2.459850000000000
H      -3.228410000000000     -1.747150000000000     -0.904880000000000
H      -3.703790000000000     -0.046430000000000     -0.565390000000000
H      -4.547470000000000      0.191330000000000     -2.907000000000000
H      -4.067670000000000     -1.522200000000000     -3.246260000000000
C      -5.749510000000000     -1.299850000000000     -1.908330000000000
H      -1.642180000000000     -0.973230000000000     -2.675770000000000
H      -5.637040000000000     -2.313010000000000     -1.466540000000000
H      -6.116920000000000     -0.598280000000000     -1.129060000000000
H      -6.487660000000000     -1.343880000000000     -2.734420000000000
C       4.651790000000000      0.772120000000000     -0.623200000000000
C       4.865850000000000     -0.558800000000000     -0.877380000000000
C       3.948860000000000     -1.284570000000000     -0.126290000000000
C       3.184110000000000     -0.418630000000000      0.552470000000000
N       3.599100000000000      0.898220000000000      0.290910000000000
C       2.069340000000000     -0.716100000000000      1.535900000000000
N       0.847220000000000     -1.324490000000000      0.981300000000000
C       0.682390000000000     -2.755310000000000      0.685570000000000
H       5.623270000000000     -0.950060000000000     -1.543940000000000
H       5.196230000000000      1.604720000000000     -1.047600000000000
H       3.895180000000000     -2.358060000000000     -0.100770000000000
H       1.749630000000000      0.269420000000000      1.940020000000000
H       2.449810000000000     -1.288890000000000      2.399590000000000
C       1.549420000000000     -3.616300000000000      1.608140000000000
C      -0.797450000000000     -3.104150000000000      0.937870000000000
C       0.973680000000000     -3.033070000000000     -0.803590000000000
H       1.301330000000000     -3.385440000000000      2.667420000000000
H       1.365200000000000     -4.693230000000000      1.422210000000000
H       2.622980000000000     -3.412070000000000      1.441500000000000
H      -1.456280000000000     -2.485540000000000      0.295570000000000
H      -1.003500000000000     -4.172170000000000      0.709440000000000
H      -1.078050000000000     -2.906540000000000      1.994240000000000
H       0.267000000000000     -2.476310000000000     -1.458630000000000
H       1.988450000000000     -2.731370000000000     -1.098020000000000
H       0.858450000000000     -4.115630000000000     -1.024780000000000
C       1.486850000000000      1.958420000000000     -1.970870000000000
C       1.047780000000000      2.811280000000000      0.185550000000000
O       0.635210000000000      1.932110000000000     -0.842080000000000
C       1.605960000000000      0.554130000000000     -2.567490000000000
C       0.683380000000000      4.244800000000000     -0.139680000000000
H       1.037410000000000      2.625580000000000     -2.733570000000000
H       2.514440000000000      2.312510000000000     -1.739010000000000
H       0.533180000000000      2.511480000000000      1.120140000000000
H       2.122500000000000      2.740420000000000      0.420430000000000
H      -0.406460000000000      4.322170000000000     -0.330170000000000
H       0.959070000000000      4.891290000000000      0.718880000000000
H       1.245800000000000      4.572710000000000     -1.037150000000000
H       2.057670000000000     -0.150330000000000     -1.845490000000000
H       0.611390000000000      0.156610000000000     -2.853100000000000
H       2.249130000000000      0.581740000000000     -3.471010000000000
Na      8.897150000000000      0.453860000000000     11.799040000000000
C       5.754780000000000      0.336710000000000     12.748910000000000
C       6.022010000000000      1.856690000000000     11.039400000000001
O       6.510820000000000      1.439330000000000     12.295579999999999
C       6.276800000000000     -0.097040000000000     14.111350000000000
C       6.846040000000000      3.038000000000000     10.548600000000000
H       4.681770000000000      0.612400000000000     12.867770000000000
H       5.860140000000000     -0.526770000000000     12.053190000000001
H       6.114490000000000      1.040620000000000     10.286569999999999
H       4.966550000000000      2.196560000000000     11.124000000000001
H       7.912210000000000      2.744520000000000     10.445100000000000
H       6.467670000000000      3.373460000000000      9.559550000000000
H       6.769220000000000      3.881660000000000     11.267060000000001
H       6.179710000000000      0.735180000000000     14.840680000000001
H       5.691610000000000     -0.966510000000000     14.478750000000000
H       7.345680000000000     -0.389860000000000     14.035580000000000
Na      5.792200000000000      3.399040000000000     13.912120000000000
Mg      1.007070000000000      0.170820000000000      9.079750000000001
C       1.680080000000000     -2.949860000000000      9.516510000000000
C       2.505330000000000     -2.163280000000000      7.423990000000000
O       1.451600000000000     -2.156500000000000      8.366030000000000
C       2.898550000000000     -2.527300000000000     10.339230000000001
C       2.605090000000000     -3.489860000000000      6.684060000000000
H       0.796520000000000     -2.804260000000000     10.168020000000000
H       1.691250000000000     -4.031850000000000      9.276920000000000
H       2.264930000000000     -1.379110000000000      6.673640000000000
H       3.476430000000000     -1.854650000000000      7.861300000000000
H       1.618640000000000     -3.747270000000000      6.244110000000000
H       3.355070000000000     -3.401560000000000      5.870980000000000
H       2.928690000000000     -4.295220000000000      7.373460000000000
H       2.884380000000000     -1.434580000000000     10.518730000000000
H       2.879700000000000     -3.052850000000000     11.316820000000000
H       3.839710000000000     -2.802660000000000      9.824230000000000
H       2.993110000000000      1.625700000000000      9.984439999999999
C       2.680070000000000      2.269040000000000      7.930950000000000
C       2.831870000000000      1.186430000000000      8.980520000000000
C       1.445330000000000      3.126840000000000      8.227090000000000
H       3.602120000000000      2.885710000000000      7.938400000000000
H       2.559060000000000      1.797450000000000      6.930400000000000
H       0.529000000000000      2.506040000000000      8.128710000000000
H       1.490280000000000      3.521980000000000      9.264350000000000
C       1.360270000000000      4.305560000000000      7.266340000000000
H       3.663040000000000      0.496620000000000      8.728569999999999
H       2.252200000000000      4.954930000000000      7.397300000000000
H       1.313870000000000      3.952240000000000      6.214560000000000
H       0.450810000000000      4.902690000000000      7.487420000000000
C      -2.105630000000000      1.744310000000000      7.346980000000000
C      -1.316710000000000      0.784830000000000      6.749640000000000
C      -1.177460000000000     -0.249330000000000      7.656540000000000
C      -1.837940000000000      0.070240000000000      8.770400000000000
N      -2.477570000000000      1.324990000000000      8.628980000000000
C      -1.933240000000000     -0.752480000000000     10.024369999999999
N      -0.636720000000000     -0.820000000000000     10.726680000000000
C      -0.454430000000000      0.062150000000000     11.906060000000000
H      -0.883850000000000      0.848350000000000      5.762330000000000
H      -2.394490000000000      2.687970000000000      6.903400000000000
H      -0.615640000000000     -1.158550000000000      7.486600000000000
H      -2.249620000000000     -1.782300000000000      9.751840000000000
H      -2.722220000000000     -0.328260000000000     10.664770000000001
C      -1.431160000000000     -0.323980000000000     13.036330000000000
C       0.979200000000000     -0.145300000000000     12.433400000000001
C      -0.614180000000000      1.553170000000000     11.539940000000000
H      -1.325490000000000     -1.402890000000000     13.279230000000000
H      -1.217250000000000      0.267080000000000     13.952510000000000
H      -2.486600000000000     -0.123950000000000     12.770820000000001
H       1.725290000000000      0.159790000000000     11.672140000000001
H       1.162930000000000      0.467400000000000     13.343810000000000
H       1.153950000000000     -1.212110000000000     12.691070000000000
H       0.135910000000000      1.854130000000000     10.777970000000000
H      -1.625620000000000      1.768270000000000     11.144480000000000
H      -0.463310000000000      2.191250000000000     12.437960000000000

-C 0
6-31g(d,p)
****
-H 0
6-31g(d,p)
****
-Mg 0
6-31g(d,p)
****
-N 0
6-31+g(d,p)
****
-Na 0
6-31g(d,p)
****
-O 0
6-31+g(d,p)
****


