%chk=lowest10_c1_a2_speciation0_speciationDFT1_speciationDFT37b_rank05_E165.03.chk
%nprocshared=20
%mem=40GB
#p opt=loose PM7/gen scf=xqc 

lowest10_c1_a2_speciation0_speciationDFT1_speciationDFT37b_rank05_E165.03 DFT input

0 1
Mg      0.421530000000000      0.353040000000000      0.133120000000000
C       1.412620000000000     -0.504470000000000     -2.773630000000000
C       1.227770000000000      1.865930000000000     -2.588980000000000
O       0.678960000000000      0.601470000000000     -2.284650000000000
C       2.846100000000000     -0.587560000000000     -2.250090000000000
C       1.075700000000000      2.207470000000000     -4.062080000000000
H       0.890190000000000     -1.401710000000000     -2.395890000000000
H       1.357180000000000     -0.584500000000000     -3.877290000000000
H       0.639730000000000      2.609320000000000     -2.007440000000000
H       2.273470000000000      1.982130000000000     -2.237080000000000
H       0.019850000000000      2.055730000000000     -4.370470000000000
H       1.356840000000000      3.268110000000000     -4.226380000000000
H       1.740520000000000      1.563840000000000     -4.672280000000000
H       2.871350000000000     -0.417040000000000     -1.155500000000000
H       3.255190000000000     -1.597240000000000     -2.463610000000000
H       3.488510000000000      0.160060000000000     -2.755550000000000
H       2.517260000000000      0.772270000000000      1.605770000000000
C       1.312850000000000      2.584830000000000      1.746480000000000
C       1.957760000000000      1.469030000000000      0.950390000000000
C       0.279210000000000      2.020550000000000      2.727960000000000
H       2.119880000000000      3.119940000000000      2.284750000000000
H       0.799710000000000      3.287380000000000      1.052110000000000
H      -0.571080000000000      1.584680000000000      2.163000000000000
H       0.730390000000000      1.218080000000000      3.348680000000000
C      -0.236310000000000      3.112760000000000      3.656650000000000
H       2.622860000000000      1.868290000000000      0.158870000000000
H       0.607670000000000      3.511340000000000      4.259380000000000
H      -0.695040000000000      3.940490000000000      3.075720000000000
H      -0.996320000000000      2.691280000000000      4.347530000000000
C      -3.145480000000000      0.912170000000000      1.404420000000000
C      -2.646500000000000      1.543110000000000      0.287330000000000
C      -2.077760000000000      0.570070000000000     -0.514370000000000
C      -2.203500000000000     -0.610030000000000      0.104370000000000
N      -2.904810000000000     -0.466660000000000      1.318430000000000
C      -1.681910000000000     -1.937330000000000     -0.380430000000000
N      -0.211340000000000     -1.999410000000000     -0.305570000000000
C       0.400320000000000     -2.730030000000000      0.831720000000000
H      -2.680660000000000      2.607910000000000      0.095110000000000
H      -3.637650000000000      1.395440000000000      2.235580000000000
H      -1.597240000000000      0.749130000000000     -1.464010000000000
H      -1.994450000000000     -2.082550000000000     -1.436750000000000
H      -2.152190000000000     -2.737710000000000      0.212310000000000
C       0.017910000000000     -4.221860000000000      0.790350000000000
C       1.931560000000000     -2.628450000000000      0.680490000000000
C       0.010110000000000     -2.114970000000000      2.192890000000000
H       0.254200000000000     -4.648230000000000     -0.207520000000000
H       0.582440000000000     -4.788320000000000      1.561840000000000
H      -1.055080000000000     -4.382560000000000      1.002310000000000
H       2.263730000000000     -1.572490000000000      0.751390000000000
H       2.455620000000000     -3.197420000000000      1.479980000000000
H       2.256560000000000     -3.028690000000000     -0.303970000000000
H       0.382370000000000     -1.071980000000000      2.279400000000000
H      -1.087480000000000     -2.111330000000000      2.334460000000000
H       0.451640000000000     -2.704580000000000      3.026170000000000
Na     -4.273550000000000     -3.017980000000000     11.886120000000000
C      -4.616620000000000     -3.182220000000000      8.629370000000000
C      -5.176290000000000     -5.196190000000000      9.596860000000000
O      -4.194670000000000     -4.184120000000000      9.529510000000000
C      -3.549140000000000     -2.100360000000000      8.549930000000000
C      -4.722930000000000     -6.265670000000000     10.580420000000000
H      -4.750900000000000     -3.600710000000000      7.607080000000000
H      -5.559190000000000     -2.705220000000000      8.982320000000000
H      -6.143870000000000     -4.785260000000000      9.965579999999999
H      -5.311240000000000     -5.682180000000000      8.603569999999999
H      -4.585650000000000     -5.823050000000000     11.590009999999999
H      -5.488510000000000     -7.067980000000000     10.641909999999999
H      -3.762220000000000     -6.711000000000000     10.245070000000000
H      -2.591440000000000     -2.533750000000000      8.191110000000000
H      -3.871150000000000     -1.306810000000000      7.842640000000000
H      -3.390260000000000     -1.646000000000000      9.550990000000001
Na     -2.193500000000000     -5.356130000000000      8.277189999999999
Mg     -5.217270000000000     -8.714210000000000      3.382840000000000
H      -5.659500000000000    -10.665319999999999      1.031580000000000
C      -6.497980000000000     -8.824550000000000      0.201080000000000
C      -6.277650000000000     -9.798520000000000      1.343740000000000
C      -7.265550000000000     -9.516500000000001     -0.921730000000000
H      -7.072760000000000     -7.949600000000000      0.575580000000000
H      -5.510120000000000     -8.469420000000000     -0.166030000000000
H      -6.683630000000000    -10.394579999999999     -1.277530000000000
H      -8.246580000000000     -9.868000000000000     -0.533560000000000
C      -7.503870000000000     -8.572310000000000     -2.090910000000000
H      -7.239950000000000    -10.131880000000001      1.785630000000000
H      -8.100780000000000     -7.695480000000000     -1.761350000000000
H      -6.534520000000000     -8.223580000000000     -2.506200000000000
H      -8.062659999999999     -9.110770000000000     -2.884260000000000
C      -3.677090000000000    -10.746660000000000      5.264430000000000
C      -2.810170000000000    -10.546840000000000      6.327480000000000
C      -2.671210000000000     -9.175409999999999      6.477920000000000
C      -3.442850000000000     -8.597340000000001      5.496200000000000
N      -4.052240000000000     -9.557380000000000      4.778010000000000
C      -3.638170000000000     -7.120680000000000      5.211500000000000
N      -4.405920000000000     -6.943120000000000      3.960850000000000
C      -4.719940000000000     -5.602480000000000      3.436910000000000
H      -2.336650000000000    -11.311280000000000      6.926480000000000
H      -4.010320000000000    -11.704210000000000      4.880060000000000
H      -2.068410000000000     -8.658220000000000      7.213670000000000
H      -2.640980000000000     -6.652790000000000      5.101220000000000
H      -4.177420000000000     -6.677150000000000      6.074120000000000
C      -3.417600000000000     -4.879730000000000      3.043060000000000
C      -5.592170000000000     -5.755410000000000      2.177610000000000
C      -5.494580000000000     -4.778420000000000      4.479610000000000
H      -2.867130000000000     -5.477100000000000      2.284050000000000
H      -3.634630000000000     -3.878300000000000      2.613650000000000
H      -2.755600000000000     -4.733440000000000      3.920260000000000
H      -6.547980000000000     -6.267000000000000      2.420480000000000
H      -5.832990000000000     -4.759070000000000      1.744120000000000
H      -5.063230000000000     -6.349470000000000      1.401700000000000
H      -6.431850000000000     -5.302360000000000      4.766260000000000
H      -4.883330000000000     -4.617720000000000      5.389830000000000
H      -5.757320000000000     -3.779470000000000      4.070020000000000

-C 0
6-31g(d,p)
****
-H 0
6-31g(d,p)
****
-Mg 0
6-31g(d,p)
****
-N 0
6-31+g(d,p)
****
-Na 0
6-31g(d,p)
****
-O 0
6-31+g(d,p)
****


