%chk=lowest10_c1_a2_speciation7_speciationDFT0_speciationDFT36_rank03_E221.21.chk
%nprocshared=20
%mem=40GB
#p opt=loose PM7/gen scf=xqc 

lowest10_c1_a2_speciation7_speciationDFT0_speciationDFT36_rank03_E221.21 DFT input

0 1
Mg      0.798620000000000      0.151750000000000      0.027970000000000
C      -2.636310000000000     -0.374660000000000     -1.436840000000000
C      -1.507380000000000     -2.384580000000000     -1.511460000000000
O      -1.387450000000000     -0.987790000000000     -1.692230000000000
C      -2.649400000000000      1.025820000000000     -2.030660000000000
C      -0.146610000000000     -3.043940000000000     -1.692740000000000
H      -3.477370000000000     -0.929060000000000     -1.909810000000000
H      -2.811620000000000     -0.301020000000000     -0.343560000000000
H      -1.881580000000000     -2.627990000000000     -0.494760000000000
H      -2.196970000000000     -2.817400000000000     -2.266800000000000
H       0.574910000000000     -2.665320000000000     -0.940890000000000
H      -0.243550000000000     -4.143260000000000     -1.567610000000000
H       0.244980000000000     -2.830810000000000     -2.709130000000000
H      -2.475650000000000      0.981020000000000     -3.124820000000000
H      -3.625980000000000      1.512380000000000     -1.827760000000000
H      -1.860440000000000      1.647450000000000     -1.584000000000000
H       2.271200000000000     -1.298380000000000     -2.413460000000000
C       3.561410000000000     -0.724430000000000     -0.722040000000000
C       2.453990000000000     -0.445500000000000     -1.731180000000000
C       3.248260000000000     -1.955020000000000      0.140170000000000
H       4.501270000000000     -0.886520000000000     -1.287390000000000
H       3.682440000000000      0.161360000000000     -0.059080000000000
H       2.340020000000000     -1.773480000000000      0.756590000000000
H       3.063800000000000     -2.834520000000000     -0.512800000000000
C       4.419110000000000     -2.279560000000000      1.064620000000000
H       2.646930000000000      0.488870000000000     -2.296670000000000
H       5.330080000000000     -2.485000000000000      0.462430000000000
H       4.621460000000000     -1.432120000000000      1.753460000000000
H       4.185050000000000     -3.181510000000000      1.667630000000000
C      -0.669580000000000     -2.096470000000000      1.703380000000000
C      -1.741620000000000     -2.023400000000000      2.574630000000000
C      -2.112110000000000     -0.688020000000000      2.643030000000000
C      -1.263420000000000     -0.007140000000000      1.800410000000000
N      -0.406910000000000     -0.867890000000000      1.236420000000000
C      -1.215600000000000      1.485610000000000      1.521350000000000
N      -0.380300000000000      1.774390000000000      0.332010000000000
C       0.121940000000000      3.146480000000000      0.116810000000000
H      -2.198490000000000     -2.849230000000000      3.100830000000000
H      -0.130990000000000     -2.993960000000000      1.421030000000000
H      -2.913790000000000     -0.262660000000000      3.229970000000000
H      -2.241660000000000      1.856340000000000      1.324440000000000
H      -0.808550000000000      1.967100000000000      2.431600000000000
C       1.229560000000000      3.493580000000000      1.127100000000000
C       0.716850000000000      3.234570000000000     -1.303820000000000
C      -1.037490000000000      4.157290000000000      0.222480000000000
H       2.088440000000000      2.796820000000000      1.017400000000000
H       1.595390000000000      4.529260000000000      0.952190000000000
H       0.861680000000000      3.440930000000000      2.170200000000000
H      -0.045340000000000      3.003930000000000     -2.077260000000000
H       1.104830000000000      4.257530000000000     -1.506390000000000
H       1.556940000000000      2.519040000000000     -1.423250000000000
H      -1.841160000000000      3.895790000000000     -0.500120000000000
H      -1.471690000000000      4.157610000000000      1.243580000000000
H      -0.687390000000000      5.187350000000000      0.000050000000000
Na      1.105790000000000     -8.135130000000000      1.824740000000000
C       3.088300000000000    -10.407579999999999      0.776500000000000
C       1.705590000000000    -11.463260000000000      2.350860000000000
O       2.366430000000000    -10.266690000000001      1.984970000000000
C       2.210660000000000    -10.065469999999999     -0.423330000000000
C       2.596120000000000    -12.338960000000000      3.228550000000000
H       3.937420000000000     -9.692090000000000      0.801980000000000
H       3.540490000000000    -11.418270000000000      0.660680000000000
H       0.801850000000000    -11.185900000000000      2.934560000000000
H       1.341550000000000    -12.038169999999999      1.470570000000000
H       2.887590000000000    -11.795909999999999      4.151410000000000
H       2.040000000000000    -13.254310000000000      3.518930000000000
H       3.512520000000000    -12.639810000000001      2.680220000000000
H       1.825780000000000     -9.028130000000001     -0.333540000000000
H       2.808700000000000    -10.145640000000000     -1.354780000000000
H       1.352740000000000    -10.764799999999999     -0.492050000000000
C      -1.638880000000000     -9.750629999999999      0.738190000000000
C      -2.107380000000000     -7.464370000000000      1.224980000000000
O      -1.188210000000000     -8.538810000000000      1.317120000000000
C      -1.875360000000000     -9.663069999999999     -0.770150000000000
C      -3.410310000000000     -7.709040000000000      1.985570000000000
H      -0.826940000000000    -10.492110000000000      0.891410000000000
H      -2.519320000000000    -10.161149999999999      1.273730000000000
H      -1.616700000000000     -6.589150000000000      1.702680000000000
H      -2.289690000000000     -7.162370000000000      0.172950000000000
H      -3.187510000000000     -7.984300000000000      3.037340000000000
H      -4.020070000000000     -6.781550000000000      1.976240000000000
H      -4.007880000000000     -8.510300000000001      1.505810000000000
H      -0.966350000000000     -9.277650000000000     -1.278160000000000
H      -2.104940000000000    -10.675990000000001     -1.162460000000000
H      -2.740220000000000     -9.009280000000000     -1.001870000000000
Na      3.574990000000000     -9.553810000000000      3.925070000000000
C       2.648710000000000     -6.362600000000000      3.723960000000000
C       1.220080000000000     -7.614410000000000      5.092800000000000
O       2.094040000000000     -7.636000000000000      3.982370000000000
C       3.833370000000000     -6.529380000000000      2.780340000000000
C      -0.154570000000000     -7.058980000000000      4.725950000000000
H       1.899250000000000     -5.713540000000000      3.222320000000000
H       3.028680000000000     -5.873760000000000      4.649090000000000
H       1.082340000000000     -8.666840000000001      5.422060000000000
H       1.656640000000000     -7.076020000000000      5.962890000000000
H      -0.594990000000000     -7.648830000000000      3.895900000000000
H      -0.826700000000000     -7.126820000000000      5.606990000000000
H      -0.082530000000000     -5.994520000000000      4.422610000000000
H       3.508220000000000     -7.017540000000000      1.836700000000000
H       4.268090000000000     -5.537260000000000      2.539400000000000
H       4.617180000000000     -7.154510000000000      3.256620000000000
C       6.068910000000000     -8.737320000000000      5.950130000000000
C       6.930540000000000     -9.618840000000001      3.990130000000000
O       5.766290000000000     -9.188490000000000      4.652260000000000
C       4.768280000000000     -8.315469999999999      6.620670000000000
C       6.539650000000000    -10.064209999999999      2.587330000000000
H       6.522520000000000     -9.551340000000000      6.559490000000000
H       6.740790000000000     -7.850710000000000      5.911410000000000
H       7.663690000000000     -8.786390000000001      3.895420000000000
H       7.385570000000000    -10.488569999999999      4.515480000000000
H       6.081260000000000     -9.215389999999999      2.036080000000000
H       7.435390000000000    -10.412260000000000      2.032310000000000
H       5.803210000000000    -10.895110000000001      2.642530000000000
H       4.069650000000000     -9.178179999999999      6.676180000000000
H       4.968100000000000     -7.945140000000000      7.647380000000000
H       4.287900000000000     -7.504870000000000      6.034530000000000
Mg     -1.892530000000000    -10.671099999999999      7.080300000000000
H      -0.283890000000000     -9.455920000000001      9.514270000000000
C      -2.180720000000000     -9.893750000000001     10.519880000000001
C      -1.372010000000000     -9.477969999999999      9.301890000000000
C      -1.794620000000000    -11.282679999999999     11.047180000000001
H      -2.004540000000000     -9.143310000000000     11.318530000000001
H      -3.261480000000000     -9.884350000000000     10.263479999999999
H      -0.716350000000000    -11.302149999999999     11.317299999999999
H      -2.388520000000000    -11.469160000000000     11.966780000000000
C      -2.091250000000000    -12.412070000000000     10.058290000000000
H      -1.708610000000000     -8.484950000000000      8.933450000000001
H      -1.458010000000000    -12.323190000000000      9.152600000000000
H      -1.871080000000000    -13.387930000000001     10.542610000000000
H      -3.162110000000000    -12.402100000000001      9.762449999999999
C       0.144090000000000    -13.028160000000000      6.451230000000000
C       0.034430000000000    -14.148930000000000      5.644340000000000
C      -1.235060000000000    -14.123350000000000      5.087250000000000
C      -1.852080000000000    -13.001139999999999      5.594020000000000
N      -1.008690000000000    -12.341989999999999      6.400350000000000
C      -3.261160000000000    -12.510800000000000      5.319740000000000
N      -3.599310000000000    -11.421450000000000      6.260200000000000
C      -4.932250000000000    -10.793180000000000      6.246930000000000
H       0.794420000000000    -14.899810000000000      5.476390000000000
H       1.009960000000000    -12.736420000000001      7.031430000000000
H      -1.662520000000000    -14.845280000000001      4.404920000000000
H      -3.302760000000000    -12.160299999999999      4.267630000000000
H      -3.959480000000000    -13.355340000000000      5.470590000000000
C      -5.999260000000000    -11.829420000000001      6.651960000000000
C      -4.946410000000000     -9.652799999999999      7.280560000000000
C      -5.253490000000000    -10.212990000000000      4.858640000000000
H      -5.768620000000000    -12.243810000000000      7.658230000000000
H      -7.007660000000000    -11.364710000000001      6.686660000000000
H      -6.043150000000000    -12.669720000000000      5.930100000000000
H      -4.193360000000000     -8.877409999999999      7.023610000000000
H      -5.947590000000000     -9.168049999999999      7.315650000000000
H      -4.716240000000000    -10.041110000000000      8.295249999999999
H      -4.486180000000000     -9.465470000000000      4.567370000000000
H      -5.284290000000000    -11.011930000000000      4.089590000000000
H      -6.247750000000000     -9.716180000000000      4.866150000000000

-C 0
6-31g(d,p)
****
-H 0
6-31g(d,p)
****
-Mg 0
6-31g(d,p)
****
-N 0
6-31+g(d,p)
****
-Na 0
6-31g(d,p)
****
-O 0
6-31+g(d,p)
****


