%chk=lowest10_c1_a2_speciation0_speciationDFT1_speciationDFT96_rank07_E187.50.chk
%nprocshared=20
%mem=40GB
#p opt=loose PM7/gen scf=xqc 

lowest10_c1_a2_speciation0_speciationDFT1_speciationDFT96_rank07_E187.50 DFT input

0 1
Mg     -0.030200000000000      0.310660000000000     -0.375550000000000
C       3.072270000000000      1.138210000000000      1.010290000000000
C       1.253380000000000      1.293150000000000      2.547770000000000
O       1.732100000000000      0.796590000000000      1.312150000000000
C       4.091690000000000      0.509630000000000      1.954880000000000
C       1.197730000000000      2.817070000000000      2.614410000000000
H       3.274030000000000      0.736640000000000     -0.006320000000000
H       3.220310000000000      2.232220000000000      0.934810000000000
H       0.207360000000000      0.940090000000000      2.642640000000000
H       1.788920000000000      0.848850000000000      3.411000000000000
H       0.651810000000000      3.219260000000000      1.736030000000000
H       0.662590000000000      3.120710000000000      3.538190000000000
H       2.217680000000000      3.247410000000000      2.651430000000000
H       3.948710000000000     -0.588260000000000      2.008990000000000
H       5.112860000000000      0.718730000000000      1.572600000000000
H       4.006120000000000      0.947510000000000      2.968760000000000
H       1.824040000000000      1.525300000000000     -2.343790000000000
C       1.133580000000000      3.360380000000000     -1.355440000000000
C       0.899360000000000      1.982380000000000     -1.934960000000000
C       1.591740000000000      4.299510000000000     -2.457620000000000
H       0.193740000000000      3.736770000000000     -0.901650000000000
H       1.903920000000000      3.297740000000000     -0.562520000000000
H       2.530820000000000      3.906200000000000     -2.904470000000000
H       0.806830000000000      4.347460000000000     -3.243560000000000
C       1.841310000000000      5.694580000000000     -1.907790000000000
H       0.067530000000000      1.972680000000000     -2.669350000000000
H       0.907940000000000      6.104550000000000     -1.466110000000000
H       2.632860000000000      5.662860000000000     -1.128740000000000
H       2.172050000000000      6.354680000000000     -2.734820000000000
C      -1.562600000000000     -4.345950000000000     -0.622930000000000
C      -2.824310000000000     -3.868610000000000     -0.877700000000000
C      -2.993250000000000     -2.711030000000000     -0.127780000000000
C      -1.862730000000000     -2.477480000000000      0.549920000000000
N      -0.927710000000000     -3.497470000000000      0.287910000000000
C      -1.558840000000000     -1.365410000000000      1.531880000000000
N      -1.475160000000000     -0.001230000000000      0.977460000000000
C      -2.630700000000000      0.856270000000000      0.682940000000000
H      -3.540660000000000     -4.331110000000000     -1.542620000000000
H      -1.112440000000000     -5.234270000000000     -1.046820000000000
H      -3.898330000000000     -2.127970000000000     -0.103230000000000
H      -0.544860000000000     -1.580440000000000      1.933330000000000
H      -2.243260000000000     -1.407000000000000      2.396970000000000
C      -3.808300000000000      0.534270000000000      1.605340000000000
C      -2.194160000000000      2.312740000000000      0.935740000000000
C      -3.018770000000000      0.742610000000000     -0.805670000000000
H      -3.483020000000000      0.630380000000000      2.664600000000000
H      -4.649950000000000      1.230890000000000      1.422100000000000
H      -4.164260000000000     -0.497250000000000      1.433560000000000
H      -1.329030000000000      2.574790000000000      0.294050000000000
H      -3.016540000000000      3.024340000000000      0.707120000000000
H      -1.883180000000000      2.456870000000000      1.992280000000000
H      -2.185320000000000      1.078720000000000     -1.462080000000000
H      -3.261990000000000     -0.288200000000000     -1.098830000000000
H      -3.901310000000000      1.380570000000000     -1.024530000000000
C       1.042880000000000     -2.195680000000000     -1.968870000000000
C       2.000480000000000     -2.241650000000000      0.187990000000000
O       1.445040000000000     -1.445220000000000     -0.839770000000000
C      -0.233700000000000     -1.598490000000000     -2.565870000000000
C       3.423010000000000     -2.644980000000000     -0.138580000000000
H       1.845560000000000     -2.138430000000000     -2.731190000000000
H       0.837270000000000     -3.262930000000000     -1.737280000000000
H       1.999860000000000     -1.645600000000000      1.122120000000000
H       1.401060000000000     -3.135610000000000      0.424830000000000
H       4.035790000000000     -1.740750000000000     -0.330480000000000
H       3.845150000000000     -3.207050000000000      0.719850000000000
H       3.423510000000000     -3.296590000000000     -1.035590000000000
H      -1.070250000000000     -1.639610000000000     -1.844990000000000
H      -0.083400000000000     -0.537880000000000     -2.850810000000000
H      -0.529420000000000     -2.169560000000000     -3.469860000000000
Na     -4.246290000000000     -3.938410000000000      6.124370000000000
C      -6.777990000000000     -3.050740000000000      4.241320000000000
C      -6.616830000000000     -5.346380000000000      4.336960000000000
O      -5.906110000000000     -4.151020000000000      4.095510000000000
C      -6.010430000000000     -1.766030000000000      3.965820000000000
C      -5.667980000000000     -6.527850000000000      4.194110000000000
H      -7.613500000000000     -3.109150000000000      3.508590000000000
H      -7.174220000000000     -2.995020000000000      5.280730000000000
H      -7.023940000000000     -5.362380000000000      5.373830000000000
H      -7.436250000000000     -5.475760000000000      3.593430000000000
H      -4.838140000000000     -6.442490000000000      4.927670000000000
H      -6.216750000000000     -7.474950000000000      4.382450000000000
H      -5.244400000000000     -6.556120000000000      3.167690000000000
H      -5.607060000000000     -1.780040000000000      2.932010000000000
H      -6.687770000000000     -0.892630000000000      4.075580000000000
H      -5.169270000000000     -1.660600000000000      4.683500000000000
Na     -5.422910000000000     -4.236420000000000      1.504610000000000
Mg    -11.198770000000000     -6.373340000000000     -1.043120000000000
H     -13.272190000000000     -7.431600000000000     -3.070100000000000
C     -14.343750000000000     -5.712180000000000     -2.247540000000000
C     -13.443720000000001     -6.924790000000000     -2.098180000000000
C     -15.716060000000001     -6.150950000000000     -2.750390000000000
H     -14.440239999999999     -5.208020000000000     -1.261310000000000
H     -13.876690000000000     -5.002200000000000     -2.964860000000000
H     -15.601570000000001     -6.662490000000000     -3.730930000000000
H     -16.163290000000000     -6.863130000000000     -2.022760000000000
C     -16.649180000000001     -4.960740000000000     -2.917530000000000
H     -13.838930000000000     -7.634230000000000     -1.341270000000000
H     -16.792750000000002     -4.445240000000000     -1.944190000000000
H     -16.229389999999999     -4.244790000000000     -3.655710000000000
H     -17.633410000000001     -5.319730000000000     -3.283590000000000
C      -8.902930000000000     -8.440860000000001     -1.747670000000000
C      -7.530200000000000     -8.397340000000000     -1.559870000000000
C      -7.246450000000000     -7.178680000000000     -0.962180000000000
C      -8.449540000000001     -6.525320000000000     -0.824100000000000
N      -9.441549999999999     -7.302920000000000     -1.292850000000000
C      -8.702410000000000     -5.150930000000000     -0.235540000000000
N     -10.114140000000001     -4.763940000000000     -0.441650000000000
C     -10.626849999999999     -3.460760000000000      0.015340000000000
H      -6.818210000000000     -9.165830000000000     -1.824190000000000
H      -9.464770000000000     -9.257999999999999     -2.186100000000000
H      -6.272480000000000     -6.806890000000000     -0.669960000000000
H      -8.042479999999999     -4.425810000000000     -0.749500000000000
H      -8.457010000000000     -5.194280000000000      0.845880000000000
C      -9.932880000000001     -2.327040000000000     -0.763220000000000
C     -12.138010000000000     -3.395010000000000     -0.271360000000000
C     -10.400810000000000     -3.286670000000000      1.527050000000000
H     -10.106019999999999     -2.450530000000000     -1.854990000000000
H     -10.329760000000000     -1.336640000000000     -0.454270000000000
H      -8.839309999999999     -2.323320000000000     -0.580650000000000
H     -12.678490000000000     -4.193930000000000      0.279800000000000
H     -12.554850000000000     -2.412950000000000      0.045640000000000
H     -12.338930000000000     -3.519600000000000     -1.357090000000000
H     -10.897980000000000     -4.106870000000000      2.088340000000000
H      -9.319279999999999     -3.293700000000000      1.768440000000000
H     -10.816480000000000     -2.316340000000000      1.874130000000000

-C 0
6-31g(d,p)
****
-H 0
6-31g(d,p)
****
-Mg 0
6-31g(d,p)
****
-N 0
6-31+g(d,p)
****
-Na 0
6-31g(d,p)
****
-O 0
6-31+g(d,p)
****


