%chk=lowest10_c1_a2_speciation7_speciationDFT36_speciationDFT96_rank01_E227.14.chk
%nprocshared=20
%mem=40GB
#p opt=loose PM7/gen scf=xqc 

lowest10_c1_a2_speciation7_speciationDFT36_speciationDFT96_rank01_E227.14 DFT input

0 1
Mg      0.377100000000000     -0.060600000000000     -0.374210000000000
C      -0.457390000000000     -3.161490000000000      1.010180000000000
C       0.586220000000000     -1.663660000000000      2.547650000000000
O      -0.083230000000000     -1.830070000000000      1.312100000000000
C      -1.511410000000000     -3.730110000000000      1.954770000000000
C       1.933750000000000     -2.377500000000000      2.614360000000000
H      -0.906070000000000     -3.135370000000000     -0.006410000000000
H       0.416050000000000     -3.836670000000000      0.934650000000000
H       0.803560000000000     -0.581240000000000      2.642320000000000
H      -0.066330000000000     -1.905110000000000      3.410930000000000
H       2.555030000000000     -2.106000000000000      1.735930000000000
H       2.464330000000000     -2.065760000000000      3.538070000000000
H       1.796360000000000     -3.475950000000000      2.651560000000000
H      -2.390710000000000     -3.057330000000000      2.009000000000000
H      -1.840950000000000     -4.718980000000000      1.572410000000000
H      -1.089300000000000     -3.875000000000000      2.968590000000000
H       0.501770000000000     -2.273760000000000     -2.343290000000000
C       2.436310000000000     -2.593540000000000     -1.355120000000000
C       1.359970000000000     -1.701560000000000     -1.934390000000000
C       3.020450000000000     -3.459830000000000     -2.457420000000000
H       3.232230000000000     -1.967860000000000     -0.901310000000000
H       1.996970000000000     -3.229450000000000     -0.562260000000000
H       2.210250000000000     -4.076390000000000     -2.904260000000000
H       3.454390000000000     -2.804000000000000     -3.243350000000000
C       4.103870000000000     -4.373590000000000     -1.907750000000000
H       1.767450000000000     -0.976250000000000     -2.668740000000000
H       4.925660000000000     -3.770330000000000     -1.466080000000000
H       3.680690000000000     -5.043300000000000     -1.128720000000000
H       4.510100000000000     -4.990030000000000     -2.734850000000000
C      -2.889610000000000      3.593410000000000     -0.622120000000000
C      -1.844830000000000      4.445520000000000     -0.879280000000000
C      -0.758680000000000      4.016110000000000     -0.126830000000000
C      -1.121970000000000      2.921470000000000      0.552440000000000
N      -2.472920000000000      2.621590000000000      0.291220000000000
C      -0.310790000000000      2.102490000000000      1.534070000000000
N       0.828380000000000      1.347850000000000      0.978490000000000
C       2.148690000000000      1.919850000000000      0.683860000000000
H      -1.886380000000000      5.293810000000000     -1.548150000000000
H      -3.883510000000000      3.646830000000000     -1.047160000000000
H       0.198850000000000      4.508410000000000     -0.103210000000000
H      -1.003890000000000      1.331680000000000      1.935270000000000
H      -0.004400000000000      2.716080000000000      2.399010000000000
C       2.458490000000000      3.100910000000000      1.606940000000000
C       3.191970000000000      0.813060000000000      0.936140000000000
C       2.244640000000000      2.312070000000000     -0.805000000000000
H       2.380220000000000      2.769060000000000      2.665560000000000
H       3.482890000000000      3.480400000000000      1.423020000000000
H       1.743440000000000      3.927360000000000      1.439770000000000
H       2.986500000000000     -0.067280000000000      0.294320000000000
H       4.219530000000000      1.169120000000000      0.707290000000000
H       3.161740000000000      0.471150000000000      1.992490000000000
H       2.119470000000000      1.421910000000000     -1.461260000000000
H       1.473600000000000      3.037790000000000     -1.098830000000000
H       3.238550000000000      2.757120000000000     -1.023900000000000
C      -2.329620000000000      0.263050000000000     -1.968580000000000
C      -2.848170000000000     -0.543240000000000      0.188250000000000
O      -1.880740000000000     -0.460470000000000     -0.839510000000000
C      -1.174240000000000      1.070160000000000     -2.565490000000000
C      -3.908830000000000     -1.573420000000000     -0.138420000000000
H      -2.681290000000000     -0.460760000000000     -2.730920000000000
H      -3.151110000000000      0.974680000000000     -1.736950000000000
H      -2.331710000000000     -0.840850000000000      1.122360000000000
H      -3.322470000000000      0.422930000000000      0.425140000000000
H      -3.432220000000000     -2.556240000000000     -0.330410000000000
H      -4.606700000000000     -1.658000000000000      0.719970000000000
H      -4.473340000000000     -1.247960000000000     -1.035430000000000
H      -0.791830000000000      1.815260000000000     -1.844480000000000
H      -0.330750000000000      0.409820000000000     -2.850420000000000
H      -1.521000000000000      1.611670000000000     -3.469540000000000
Na      2.495560000000000     15.207540000000000      6.082950000000000
C       4.215040000000000     17.887810000000002      6.317650000000000
C       3.910620000000000     17.135000000000002      8.518200000000000
O       3.347920000000000     17.234020000000001      7.223860000000000
C       5.141220000000000     16.886769999999999      5.634410000000000
C       3.548410000000000     18.348009999999999      9.371380000000000
H       3.589660000000000     18.372129999999999      5.538060000000000
H       4.799570000000000     18.705649999999999      6.795940000000000
H       3.489390000000000     16.227499999999999      9.001080000000000
H       5.013590000000000     16.990390000000001      8.496510000000001
H       2.446710000000000     18.441479999999999      9.466790000000000
H       3.981090000000000     18.226179999999999     10.386320000000000
H       3.953220000000000     19.278289999999998      8.922430000000000
H       4.546250000000000     16.118480000000002      5.097680000000000
H       5.784440000000000     17.417539999999999      4.902250000000000
H       5.792070000000000     16.384850000000000      6.378930000000000
C       4.891160000000000     13.304050000000000      7.470010000000000
C       3.269490000000000     11.972210000000000      6.336780000000000
O       3.629610000000000     13.251799999999999      6.827600000000000
C       6.067000000000000     12.976410000000000      6.549080000000000
C       3.108450000000000     10.919810000000000      7.433520000000000
H       5.029900000000000     14.354050000000001      7.803100000000000
H       4.907500000000000     12.694879999999999      8.396789999999999
H       2.274410000000000     12.088749999999999      5.855810000000000
H       3.949980000000000     11.630720000000000      5.529630000000000
H       2.406650000000000     11.286180000000000      8.212020000000001
H       2.700940000000000      9.987480000000000      6.989430000000000
H       4.085990000000000     10.674590000000000      7.895660000000000
H       6.038280000000000     13.623110000000000      5.646990000000000
H       7.017560000000000     13.159470000000001      7.092950000000000
H       6.052460000000000     11.909810000000000      6.247120000000000
Na      1.155980000000000     18.144150000000000      7.516860000000000
C      -0.357530000000000     15.991880000000000      5.486630000000000
C      -0.379810000000000     15.263290000000000      7.709610000000000
O       0.306070000000000     16.019900000000000      6.732790000000000
C       0.213550000000000     17.092630000000000      4.601800000000000
C      -0.121230000000000     13.764799999999999      7.560290000000000
H      -0.173580000000000     15.020949999999999      4.982920000000000
H      -1.450240000000000     16.180099999999999      5.587200000000000
H       0.012970000000000     15.576870000000000      8.700540000000000
H      -1.469250000000000     15.487340000000000      7.727050000000000
H       0.967980000000000     13.559160000000000      7.606170000000000
H      -0.621060000000000     13.221159999999999      8.389210000000000
H      -0.527250000000000     13.385330000000000      6.600400000000000
H       1.307520000000000     16.950600000000001      4.469370000000000
H      -0.274570000000000     17.067280000000000      3.604760000000000
H       0.033210000000000     18.086379999999998      5.062110000000000
C      -1.448280000000000     20.186730000000001      7.355250000000000
C       0.408480000000000     21.232720000000000      6.449180000000000
O      -0.105800000000000     20.029180000000000      6.964900000000000
C      -1.933510000000000     18.861899999999999      7.928620000000000
C       1.848500000000000     20.985810000000001      6.019510000000000
H      -1.544310000000000     20.961649999999999      8.148970000000000
H      -2.085910000000000     20.437529999999999      6.478070000000000
H      -0.167090000000000     21.558589999999999      5.553680000000000
H       0.410930000000000     22.027719999999999      7.228550000000000
H       1.879170000000000     20.194800000000001      5.239870000000000
H       2.290060000000000     21.916170000000001      5.606040000000000
H       2.454650000000000     20.654109999999999      6.890350000000000
H      -1.317130000000000     18.577940000000002      8.808890000000000
H      -2.994800000000000     18.944440000000000      8.241709999999999
H      -1.847250000000000     18.065000000000001      7.161190000000000
Mg     -2.954580000000000      8.786709999999999      4.359510000000000
C      -2.052990000000000      9.303550000000000      0.633430000000000
C      -3.964970000000000     10.518509999999999      1.065540000000000
O      -3.297120000000000      9.296939999999999      1.305030000000000
C      -1.535000000000000      7.878870000000000      0.516320000000000
C      -5.250620000000000     10.562260000000000      1.879180000000000
H      -2.141050000000000      9.697210000000000     -0.404620000000000
H      -1.314550000000000      9.908640000000000      1.200840000000000
H      -3.335850000000000     11.385710000000000      1.363510000000000
H      -4.239960000000000     10.607100000000001     -0.008040000000000
H      -5.025890000000000     10.487530000000000      2.962350000000000
H      -5.781290000000000     11.519579999999999      1.690970000000000
H      -5.913050000000000      9.720470000000001      1.587860000000000
H      -2.258520000000000      7.259880000000000     -0.050990000000000
H      -0.553980000000000      7.873150000000000     -0.002700000000000
H      -1.400770000000000      7.430380000000000      1.513010000000000
H      -6.113760000000000      8.126180000000000      3.628150000000000
C      -5.582120000000000      8.286070000000000      5.747390000000000
C      -5.317550000000000      7.800770000000000      4.327430000000000
C      -5.652520000000000      9.816929999999999      5.811680000000000
H      -6.543020000000000      7.847400000000000      6.087470000000000
H      -4.764860000000000      7.929150000000000      6.412710000000000
H      -4.672580000000000     10.257470000000000      5.524920000000000
H      -6.428140000000000     10.187350000000000      5.107680000000000
C      -6.014560000000000     10.286120000000000      7.218020000000000
H      -5.210710000000000      6.696880000000000      4.302450000000000
H      -7.003930000000000      9.874140000000001      7.511320000000000
H      -5.248970000000000      9.953170000000000      7.950630000000000
H      -6.073450000000000     11.394830000000001      7.240540000000000
C      -2.515250000000000     11.877570000000000      3.829270000000000
C      -1.369070000000000     12.608409999999999      3.569160000000000
C      -0.311350000000000     11.710979999999999      3.583470000000000
C      -0.857970000000000     10.470060000000000      3.825460000000000
N      -2.186990000000000     10.589359999999999      3.976560000000000
C      -0.150110000000000      9.131779999999999      3.939120000000000
N      -1.127330000000000      8.016500000000001      3.894390000000000
C      -0.732920000000000      6.685760000000000      4.395260000000000
H      -1.314480000000000     13.671740000000000      3.391040000000000
H      -3.524140000000000     12.270070000000000      3.893950000000000
H       0.734460000000000     11.937540000000000      3.419770000000000
H       0.541070000000000      9.015169999999999      3.078860000000000
H       0.430210000000000      9.141330000000000      4.883600000000000
C      -0.643450000000000      6.688430000000000      5.930860000000000
C      -1.810460000000000      5.666320000000000      3.971460000000000
C       0.611950000000000      6.254240000000000      3.774810000000000
H      -1.624990000000000      6.964300000000000      6.373740000000000
H      -0.364220000000000      5.677850000000000      6.301250000000000
H       0.120480000000000      7.404490000000000      6.292440000000000
H      -1.911030000000000      5.620220000000000      2.866590000000000
H      -1.549870000000000      4.645360000000000      4.328120000000000
H      -2.799280000000000      5.939010000000000      4.396790000000000
H       0.542330000000000      6.258850000000000      2.664920000000000
H       1.429380000000000      6.940730000000000      4.077930000000000
H       0.887700000000000      5.229340000000000      4.102680000000000

-C 0
6-31g(d,p)
****
-H 0
6-31g(d,p)
****
-Mg 0
6-31g(d,p)
****
-N 0
6-31+g(d,p)
****
-Na 0
6-31g(d,p)
****
-O 0
6-31+g(d,p)
****


