%chk=lowest10_c1_a2_speciation0_speciationDFT38_speciationDFT96_rank04_E186.69.chk
%nprocshared=20
%mem=40GB
#p opt=loose PM7/gen scf=xqc 

lowest10_c1_a2_speciation0_speciationDFT38_speciationDFT96_rank04_E186.69 DFT input

0 1
Mg     -0.002210000000000      0.314150000000000     -0.381660000000000
C      -1.663390000000000     -2.694920000000000     -1.011070000000000
C       0.686230000000000     -2.941570000000000     -0.670230000000000
O      -0.461080000000000     -2.125610000000000     -0.527000000000000
C      -2.118470000000000     -3.921390000000000     -0.226880000000000
C       1.053090000000000     -3.231120000000000     -2.123380000000000
H      -2.447380000000000     -1.916470000000000     -0.888890000000000
H      -1.620550000000000     -2.908610000000000     -2.095990000000000
H       1.533350000000000     -2.367810000000000     -0.244620000000000
H       0.622130000000000     -3.862360000000000     -0.055830000000000
H       1.109630000000000     -2.284850000000000     -2.700280000000000
H       2.044290000000000     -3.729480000000000     -2.155180000000000
H       0.312280000000000     -3.910230000000000     -2.589140000000000
H      -2.177470000000000     -3.692230000000000      0.856070000000000
H      -3.125490000000000     -4.223280000000000     -0.583960000000000
H      -1.424930000000000     -4.769220000000000     -0.391820000000000
H      -2.351690000000000      0.649310000000000     -2.151950000000000
C      -0.910660000000000     -0.082500000000000     -3.638600000000000
C      -1.285490000000000      0.759260000000000     -2.438560000000000
C      -1.700380000000000      0.385840000000000     -4.848250000000000
H       0.177210000000000      0.013540000000000     -3.834210000000000
H      -1.134680000000000     -1.145510000000000     -3.424370000000000
H      -2.787010000000000      0.287620000000000     -4.634160000000000
H      -1.463260000000000      1.454040000000000     -5.045350000000000
C      -1.351380000000000     -0.443170000000000     -6.073620000000000
H      -0.992380000000000      1.822140000000000     -2.563850000000000
H      -0.269080000000000     -0.346860000000000     -6.305290000000000
H      -1.594580000000000     -1.512330000000000     -5.894150000000000
H      -1.941670000000000     -0.076490000000000     -6.937430000000000
C       0.266410000000000      2.144850000000000      4.114580000000000
C       1.249320000000000      3.011370000000000      3.688030000000000
C       2.019780000000000      2.320510000000000      2.765480000000000
C       1.482310000000000      1.108820000000000      2.651950000000000
N       0.386000000000000      1.014760000000000      3.524040000000000
C       1.948980000000000     -0.064240000000000      1.812550000000000
N       1.848590000000000      0.088430000000000      0.349460000000000
C       2.807820000000000      0.825100000000000     -0.485590000000000
H       1.393120000000000      4.028800000000000      4.029040000000000
H      -0.507170000000000      2.352210000000000      4.840140000000000
H       2.890310000000000      2.707040000000000      2.265720000000000
H       1.280030000000000     -0.913880000000000      2.069650000000000
H       2.964210000000000     -0.371830000000000      2.109630000000000
C       4.211180000000000      0.795880000000000      0.125040000000000
C       2.856780000000000      0.120120000000000     -1.855780000000000
C       2.314870000000000      2.266720000000000     -0.728330000000000
H       4.524240000000000     -0.260640000000000      0.276140000000000
H       4.937710000000000      1.294730000000000     -0.546710000000000
H       4.225620000000000      1.313670000000000      1.101290000000000
H       1.850840000000000      0.106670000000000     -2.321300000000000
H       3.547220000000000      0.642950000000000     -2.552360000000000
H       3.191190000000000     -0.933700000000000     -1.749730000000000
H       1.341110000000000      2.270110000000000     -1.267090000000000
H       2.165270000000000      2.823930000000000      0.206530000000000
H       3.047110000000000      2.826130000000000     -1.348730000000000
C      -2.205090000000000      1.439350000000000      1.581160000000000
C      -1.845200000000000     -0.830710000000000      2.113660000000000
O      -1.791550000000000      0.169520000000000      1.116320000000000
C      -1.359320000000000      2.535340000000000      0.928770000000000
C      -3.268400000000000     -1.298180000000000      2.342000000000000
H      -3.263030000000000      1.592140000000000      1.287950000000000
H      -2.114460000000000      1.555700000000000      2.682550000000000
H      -1.237010000000000     -1.690840000000000      1.769940000000000
H      -1.382550000000000     -0.523530000000000      3.067330000000000
H      -3.707370000000000     -1.647150000000000      1.384770000000000
H      -3.264220000000000     -2.131030000000000      3.074850000000000
H      -3.871600000000000     -0.460360000000000      2.746170000000000
H      -0.292460000000000      2.431140000000000      1.196310000000000
H      -1.436260000000000      2.494760000000000     -0.176130000000000
H      -1.704900000000000      3.531890000000000      1.272370000000000
Na      8.643509999999999     -2.164590000000000     10.024260000000000
C       7.925730000000000     -4.397510000000000     12.319690000000000
C       6.282550000000000     -2.786710000000000     12.220060000000000
O       7.672800000000000     -3.008830000000000     12.319970000000000
C       9.425050000000001     -4.631350000000000     12.437799999999999
C       6.016100000000000     -1.288420000000000     12.204760000000000
H       7.436110000000000     -4.889180000000000     13.191160000000000
H       7.583290000000000     -4.861180000000000     11.366450000000000
H       5.881450000000000     -3.211880000000000     11.272740000000001
H       5.749850000000000     -3.218140000000000     13.097970000000000
H       6.522560000000000     -0.818830000000000     11.334870000000000
H       4.923860000000000     -1.102370000000000     12.127359999999999
H       6.394140000000000     -0.823810000000000     13.140340000000000
H       9.807290000000000     -4.191450000000000     13.383450000000000
H       9.635920000000000     -5.721840000000000     12.438470000000001
H       9.953569999999999     -4.164030000000000     11.579900000000000
Na      8.246720000000000     -2.263770000000000     14.785399999999999
Mg      3.764760000000000     -5.129070000000000      6.573050000000000
C       3.405430000000000     -5.201310000000000      3.240100000000000
C       5.232120000000000     -3.778760000000000      3.831770000000000
O       4.089380000000000     -4.492180000000000      4.259360000000000
C       4.283560000000000     -6.125530000000000      2.392650000000000
C       4.891430000000000     -2.614430000000000      2.910840000000000
H       2.677490000000000     -5.857360000000000      3.758010000000000
H       2.807780000000000     -4.512470000000000      2.608430000000000
H       5.700690000000000     -3.352380000000000      4.740230000000000
H       6.006080000000000     -4.445770000000000      3.403370000000000
H       5.813520000000000     -2.032070000000000      2.704750000000000
H       4.148740000000000     -1.953580000000000      3.401210000000000
H       4.482990000000000     -2.982760000000000      1.948780000000000
H       4.867730000000000     -6.805820000000000      3.040120000000000
H       4.969540000000000     -5.539190000000000      1.748620000000000
H       3.639670000000000     -6.741160000000000      1.732480000000000
H       2.410220000000000     -2.850890000000000      7.043230000000000
C       4.080700000000000     -2.766580000000000      8.456540000000000
C       2.954850000000000     -3.524300000000000      7.735670000000000
C       5.196350000000000     -2.232140000000000      7.537370000000000
H       3.638140000000000     -1.921640000000000      9.025100000000000
H       4.556640000000000     -3.463890000000000      9.177930000000000
H       5.952790000000000     -1.719640000000000      8.173360000000001
H       5.704030000000000     -3.078860000000000      7.031600000000000
C       4.709060000000000     -1.229540000000000      6.490900000000000
H       2.240290000000000     -3.933470000000000      8.477200000000000
H       3.995890000000000     -1.708790000000000      5.792130000000000
H       4.219660000000000     -0.361390000000000      6.979200000000000
H       5.575020000000000     -0.860460000000000      5.898580000000000
C       7.406530000000000     -6.075410000000000      5.413580000000000
C       7.129380000000000     -5.730480000000000      6.723350000000000
C       5.987060000000000     -6.418860000000000      7.080510000000000
C       5.614310000000000     -7.111250000000000      6.010840000000000
N       6.529060000000000     -6.899300000000000      4.965130000000000
C       4.374020000000000     -7.961800000000000      5.907270000000000
N       3.196990000000000     -7.105640000000000      6.111310000000000
C       1.857620000000000     -7.732380000000000      6.226650000000000
H       7.679800000000000     -5.030630000000000      7.339920000000000
H       8.232150000000001     -5.707740000000000      4.822420000000000
H       5.467280000000000     -6.372930000000000      8.027600000000000
H       4.432760000000000     -8.759399999999999      6.672690000000000
H       4.335630000000000     -8.418320000000000      4.895970000000000
C       1.754870000000000     -8.581070000000000      7.509690000000000
C       0.798100000000000     -6.619800000000000      6.286130000000000
C       1.559130000000000     -8.624070000000000      4.998480000000000
H       1.947870000000000     -7.957130000000000      8.407130000000000
H       0.738790000000000     -9.025309999999999      7.600600000000000
H       2.475530000000000     -9.423859999999999      7.499050000000000
H       0.823610000000000     -6.000260000000000      5.365160000000000
H      -0.222270000000000     -7.055150000000000      6.380190000000000
H       0.975530000000000     -5.959160000000000      7.160440000000000
H       1.620680000000000     -8.034150000000000      4.059430000000000
H       2.272100000000000     -9.471860000000000      4.928620000000000
H       0.537070000000000     -9.058000000000000      5.065720000000000

-C 0
6-31g(d,p)
****
-H 0
6-31g(d,p)
****
-Mg 0
6-31g(d,p)
****
-N 0
6-31+g(d,p)
****
-Na 0
6-31g(d,p)
****
-O 0
6-31+g(d,p)
****


