%chk=lowest10_c1_a2_speciation7_speciationDFT0_speciationDFT36_rank01_E220.88.chk
%nprocshared=20
%mem=40GB
#p opt=loose PM7/gen scf=xqc 

lowest10_c1_a2_speciation7_speciationDFT0_speciationDFT36_rank01_E220.88 DFT input

0 1
Mg     -0.026730000000000     -0.764280000000000      0.088080000000000
C       1.506420000000000      2.601570000000000     -0.581310000000000
C       1.000350000000000      1.623690000000000     -2.607790000000000
O       1.509850000000000      1.389390000000000     -1.310290000000000
C       2.425010000000000      2.475770000000000      0.624630000000000
C       0.913910000000000      0.308360000000000     -3.370580000000000
H       1.889810000000000      3.453040000000000     -1.186570000000000
H       0.480970000000000      2.833900000000000     -0.226830000000000
H      -0.014450000000000      2.072020000000000     -2.566530000000000
H       1.673840000000000      2.300670000000000     -3.174590000000000
H       0.225780000000000     -0.395680000000000     -2.860610000000000
H       0.531780000000000      0.495190000000000     -4.396490000000000
H       1.919630000000000     -0.155660000000000     -3.440650000000000
H       3.458290000000000      2.241410000000000      0.298050000000000
H       2.421810000000000      3.423650000000000      1.201750000000000
H       2.086570000000000      1.670640000000000      1.291830000000000
H       1.855120000000000     -2.261900000000000     -1.999520000000000
C       0.266830000000000     -3.497580000000000     -1.099890000000000
C       1.392140000000000     -2.473690000000000     -1.016170000000000
C      -0.845720000000000     -3.045520000000000     -2.055400000000000
H       0.705940000000000     -4.449580000000000     -1.457180000000000
H      -0.165350000000000     -3.649860000000000     -0.085350000000000
H      -1.331440000000000     -2.120270000000000     -1.673230000000000
H      -0.416120000000000     -2.832280000000000     -3.057390000000000
C      -1.903510000000000     -4.136460000000000     -2.207390000000000
H       2.153400000000000     -2.766610000000000     -0.264810000000000
H      -1.436980000000000     -5.062420000000000     -2.607240000000000
H      -2.377370000000000     -4.361820000000000     -1.228430000000000
H      -2.690190000000000     -3.803840000000000     -2.917350000000000
C      -2.093830000000000      0.956710000000000     -1.576570000000000
C      -2.837560000000000      2.069480000000000     -1.225730000000000
C      -2.546640000000000      2.341810000000000      0.103060000000000
C      -1.629660000000000      1.397050000000000      0.501280000000000
N      -1.359200000000000      0.577100000000000     -0.523450000000000
C      -0.998990000000000      1.218980000000000      1.870940000000000
N       0.159660000000000      0.298280000000000      1.804890000000000
C       0.666150000000000     -0.317030000000000      3.048100000000000
H      -3.514470000000000      2.617000000000000     -1.865040000000000
H      -2.082200000000000      0.471390000000000     -2.546420000000000
H      -2.948100000000000      3.142630000000000      0.708220000000000
H      -0.643700000000000      2.200870000000000      2.243310000000000
H      -1.791990000000000      0.826780000000000      2.536960000000000
C      -0.307870000000000     -1.387310000000000      3.572390000000000
C       2.016420000000000     -0.998140000000000      2.744440000000000
C       0.898000000000000      0.768720000000000      4.117960000000000
H      -0.435760000000000     -2.198530000000000      2.823460000000000
H       0.087240000000000     -1.836890000000000      4.509820000000000
H      -1.301960000000000     -0.957020000000000      3.802080000000000
H       2.764260000000000     -0.266900000000000      2.372380000000000
H       2.433800000000000     -1.472370000000000      3.660310000000000
H       1.893510000000000     -1.788140000000000      1.974540000000000
H       1.591300000000000      1.546900000000000      3.730260000000000
H      -0.056860000000000      1.259660000000000      4.398070000000000
H       1.340090000000000      0.331700000000000      5.037920000000000
Na     -2.245390000000000     -8.150810000000000      1.433660000000000
C      -0.751750000000000     -6.944360000000000      3.982800000000000
C      -0.028750000000000     -9.171329999999999      3.822890000000000
O      -1.100760000000000     -8.268520000000001      3.627030000000000
C      -0.157590000000000     -6.199190000000000      2.791150000000000
C      -0.056290000000000     -9.764849999999999      5.229180000000000
H      -1.680180000000000     -6.419830000000000      4.293350000000000
H      -0.066130000000000     -6.901260000000000      4.858800000000000
H      -0.145280000000000     -9.999160000000000      3.091030000000000
H       0.962390000000000     -8.710800000000001      3.614700000000000
H      -1.010670000000000    -10.302860000000001      5.406210000000000
H       0.780280000000000    -10.485550000000000      5.340450000000000
H       0.058080000000000     -8.968480000000000      5.993130000000000
H      -0.880530000000000     -6.183460000000000      1.948810000000000
H       0.072230000000000     -5.153580000000000      3.084370000000000
H       0.779660000000000     -6.686640000000000      2.453890000000000
C       0.623410000000000     -8.795610000000000     -0.195160000000000
C      -1.247230000000000     -8.847490000000001     -1.671680000000000
O      -0.786330000000000     -8.798060000000000     -0.332820000000000
C       1.299850000000000     -7.569820000000000     -0.809250000000000
C      -0.857910000000000    -10.131410000000001     -2.403920000000000
H       0.831580000000000     -8.761910000000000      0.894800000000000
H       1.074620000000000     -9.743370000000001     -0.553660000000000
H      -2.357190000000000     -8.830909999999999     -1.622250000000000
H      -0.963770000000000     -7.939230000000000     -2.242780000000000
H      -1.178800000000000    -11.014820000000000     -1.813710000000000
H      -1.360440000000000    -10.156280000000001     -3.393340000000000
H       0.235870000000000    -10.174160000000001     -2.580080000000000
H       0.843950000000000     -6.643070000000000     -0.403740000000000
H       2.379920000000000     -7.581940000000000     -0.552860000000000
H       1.216650000000000     -7.578070000000000     -1.914840000000000
Na     -2.999920000000000     -9.243620000000000      4.708190000000000
C      -5.119240000000000     -8.678220000000000      2.208680000000000
C      -4.128900000000000    -10.794879999999999      2.064290000000000
O      -3.980400000000000     -9.460110000000000      2.504580000000000
C      -5.050120000000000     -7.388880000000000      3.018000000000000
C      -3.870610000000000    -10.933840000000000      0.565320000000000
H      -5.126740000000000     -8.406599999999999      1.131400000000000
H      -6.066540000000000     -9.192890000000000      2.486110000000000
H      -3.365320000000000    -11.402300000000000      2.596130000000000
H      -5.114720000000000    -11.225199999999999      2.347890000000000
H      -2.858880000000000    -10.553269999999999      0.315450000000000
H      -3.929070000000000    -12.004899999999999      0.278900000000000
H      -4.628670000000000    -10.374219999999999     -0.019760000000000
H      -4.116330000000000     -6.835210000000000      2.781110000000000
H      -5.920710000000000     -6.743390000000000      2.776640000000000
H      -5.066180000000000     -7.617250000000000      4.104140000000000
C      -5.531320000000000     -9.718710000000000      6.794090000000000
C      -4.314460000000000     -7.868360000000000      7.470660000000000
O      -4.483700000000000     -8.838660000000001      6.466200000000000
C      -5.642580000000000    -10.756880000000001      5.685390000000000
C      -3.190960000000000     -6.934250000000000      7.041230000000000
H      -5.318990000000000    -10.253720000000000      7.747180000000000
H      -6.499350000000000     -9.172540000000000      6.854080000000000
H      -5.238980000000000     -7.260730000000000      7.595080000000000
H      -4.020970000000000     -8.343450000000001      8.433790000000000
H      -3.455040000000000     -6.443460000000000      6.080050000000000
H      -3.026990000000000     -6.152440000000000      7.811560000000000
H      -2.249320000000000     -7.508770000000000      6.903250000000000
H      -4.690450000000000    -11.323250000000000      5.595210000000000
H      -6.466430000000000    -11.466910000000000      5.905200000000000
H      -5.851260000000000    -10.254310000000000      4.718320000000000
Mg     -1.278400000000000    -14.629130000000000      1.676720000000000
H      -3.953400000000000    -15.732390000000001      2.934260000000000
C      -3.279120000000000    -17.535990000000002      1.887870000000000
C      -3.410100000000000    -16.027000000000001      2.013650000000000
C      -2.539970000000000    -18.172799999999999      3.072990000000000
H      -4.301960000000000    -17.963080000000001      1.829760000000000
H      -2.744060000000000    -17.780539999999998      0.945640000000000
H      -3.071880000000000    -17.944330000000001      4.022140000000000
H      -2.551280000000000    -19.272900000000000      2.922260000000000
C      -1.080150000000000    -17.728970000000000      3.189150000000000
H      -3.918350000000000    -15.605900000000000      1.119450000000000
H      -1.011410000000000    -16.648910000000001      3.429770000000000
H      -0.589800000000000    -18.299710000000001      4.007220000000000
H      -0.532570000000000    -17.932330000000000      2.244080000000000
C       0.085580000000000    -13.792540000000001      4.422580000000000
C       1.384470000000000    -13.420870000000001      4.729470000000000
C       2.111210000000000    -13.480950000000000      3.550180000000000
C       1.231220000000000    -13.906359999999999      2.580060000000000
N       0.012820000000000    -14.075570000000001      3.112480000000000
C       1.515640000000000    -14.155110000000001      1.111080000000000
N       0.364080000000000    -14.845100000000000      0.492090000000000
C       0.395410000000000    -15.253769999999999     -0.923470000000000
H       1.760900000000000    -13.134160000000000      5.701870000000000
H      -0.746780000000000    -13.847670000000001      5.112390000000000
H       3.160610000000000    -13.255020000000000      3.418450000000000
H       1.702310000000000    -13.173570000000000      0.628100000000000
H       2.412820000000000    -14.797540000000000      1.033860000000000
C       1.483900000000000    -16.325510000000001     -1.130710000000000
C      -0.967570000000000    -15.870189999999999     -1.286110000000000
C       0.656640000000000    -14.045560000000000     -1.839550000000000
H       1.290190000000000    -17.200869999999998     -0.472140000000000
H       1.497550000000000    -16.675680000000000     -2.184830000000000
H       2.492710000000000    -15.929520000000000     -0.897120000000000
H      -1.783950000000000    -15.127829999999999     -1.156760000000000
H      -0.973260000000000    -16.213239999999999     -2.344850000000000
H      -1.185770000000000    -16.746250000000000     -0.639390000000000
H      -0.127950000000000    -13.274220000000000     -1.691740000000000
H       1.647350000000000    -13.592560000000001     -1.629840000000000
H       0.649930000000000    -14.358420000000001     -2.906090000000000

-C 0
6-31g(d,p)
****
-H 0
6-31g(d,p)
****
-Mg 0
6-31g(d,p)
****
-N 0
6-31+g(d,p)
****
-Na 0
6-31g(d,p)
****
-O 0
6-31+g(d,p)
****


