%chk=lowest10_c1_a2_speciation0_speciationDFT1_speciationDFT96_rank05_E187.31.chk
%nprocshared=20
%mem=40GB
#p opt=loose PM7/gen scf=xqc 

lowest10_c1_a2_speciation0_speciationDFT1_speciationDFT96_rank05_E187.31 DFT input

0 1
Mg      0.503910000000000     -0.226700000000000      0.002970000000000
C       0.436320000000000      2.044820000000000     -2.647920000000000
C      -1.283050000000000      0.391910000000000     -2.744960000000000
O      -0.308540000000000      1.055450000000000     -1.962440000000000
C      -0.398770000000000      3.241820000000000     -3.090570000000000
C      -0.694960000000000     -0.417740000000000     -3.897510000000000
H       1.192950000000000      2.420250000000000     -1.925370000000000
H       1.012690000000000      1.625800000000000     -3.494450000000000
H      -1.778380000000000     -0.337950000000000     -2.074320000000000
H      -2.089940000000000      1.077240000000000     -3.074510000000000
H       0.104290000000000     -1.091000000000000     -3.524340000000000
H      -1.497140000000000     -1.033730000000000     -4.354670000000000
H      -0.286940000000000      0.250870000000000     -4.680650000000000
H      -0.957410000000000      3.666590000000000     -2.232500000000000
H       0.278350000000000      4.021760000000000     -3.497860000000000
H      -1.107960000000000      2.948380000000000     -3.889290000000000
H       3.193670000000000      0.770830000000000     -0.721050000000000
C       2.960920000000000     -0.744960000000000     -2.293330000000000
C       2.807830000000000     -0.258900000000000     -0.868760000000000
C       4.436550000000000     -0.817570000000000     -2.644210000000000
H       2.495950000000000     -1.747050000000000     -2.395790000000000
H       2.439770000000000     -0.046570000000000     -2.976440000000000
H       4.887590000000000      0.192480000000000     -2.532010000000000
H       4.941230000000000     -1.521220000000000     -1.946880000000000
C       4.627630000000000     -1.298920000000000     -4.073360000000000
H       3.229500000000000     -0.974830000000000     -0.133280000000000
H       4.189500000000000     -2.312280000000000     -4.197780000000000
H       4.137380000000000     -0.597640000000000     -4.782120000000000
H       5.712490000000000     -1.342360000000000     -4.297490000000000
C      -1.687170000000000      0.769970000000000      4.229300000000000
C      -1.570230000000000     -0.555100000000000      4.588500000000000
C      -1.757730000000000     -1.301710000000000      3.435270000000000
C      -1.952920000000000     -0.432230000000000      2.447000000000000
N      -1.919450000000000      0.868730000000000      2.973090000000000
C      -2.248790000000000     -0.703010000000000      0.984200000000000
N      -1.165260000000000     -1.316310000000000      0.193660000000000
C      -0.828520000000000     -2.746860000000000      0.197020000000000
H      -1.385150000000000     -0.929760000000000      5.587460000000000
H      -1.603570000000000      1.626930000000000      4.882100000000000
H      -1.758160000000000     -2.375880000000000      3.381100000000000
H      -2.429510000000000      0.289800000000000      0.518210000000000
H      -3.191160000000000     -1.267460000000000      0.875430000000000
C      -2.062230000000000     -3.603970000000000      0.486150000000000
C      -0.308050000000000     -3.098180000000000     -1.210930000000000
C       0.314690000000000     -3.029370000000000      1.193600000000000
H      -2.855350000000000     -3.369510000000000     -0.257270000000000
H      -1.812830000000000     -4.681530000000000      0.420110000000000
H      -2.450560000000000     -3.395410000000000      1.498550000000000
H       0.578110000000000     -2.481470000000000     -1.462120000000000
H      -0.008100000000000     -4.166530000000000     -1.273390000000000
H      -1.082540000000000     -2.901750000000000     -1.982410000000000
H       1.238440000000000     -2.478160000000000      0.908410000000000
H       0.063820000000000     -2.725350000000000      2.219110000000000
H       0.557040000000000     -4.113430000000000      1.205730000000000
C       1.066960000000000      1.951800000000000      2.218840000000000
C      -0.587120000000000      2.798400000000000      0.765090000000000
O       0.512480000000000      1.923550000000000      0.918390000000000
C       1.523450000000000      0.548070000000000      2.623080000000000
C      -0.125890000000000      4.234080000000000      0.616050000000000
H       1.952390000000000      2.618420000000000      2.207380000000000
H       0.354680000000000      2.309480000000000      2.993120000000000
H      -1.136100000000000      2.502240000000000     -0.150710000000000
H      -1.330150000000000      2.714130000000000      1.576670000000000
H       0.585220000000000      4.314100000000000     -0.231700000000000
H      -1.006730000000000      4.880870000000000      0.425060000000000
H       0.370180000000000      4.561250000000000      1.551990000000000
H       0.672900000000000     -0.156220000000000      2.656340000000000
H       2.266320000000000      0.147080000000000      1.904950000000000
H       1.984950000000000      0.578580000000000      3.631380000000000
Na     -6.324780000000000     -5.747330000000000      0.465190000000000
C      -5.136020000000000     -4.636490000000000      3.310120000000000
C      -4.973020000000000     -6.931800000000000      3.213980000000000
O      -5.840880000000000     -5.830880000000000      3.048250000000000
C      -6.077020000000000     -3.452610000000000      3.141040000000000
C      -5.733540000000000     -8.215949999999999      2.914710000000000
H      -4.757820000000000     -4.621820000000000      4.356450000000000
H      -4.297030000000000     -4.508970000000000      2.590910000000000
H      -4.116830000000000     -6.871650000000000      2.503650000000000
H      -4.606080000000000     -6.990390000000000      4.264180000000000
H      -6.109400000000000     -8.203120000000000      1.869440000000000
H      -5.059970000000000     -9.089790000000001      3.042560000000000
H      -6.594060000000000     -8.321560000000000      3.609070000000000
H      -6.928060000000000     -3.537130000000000      3.849960000000000
H      -5.530980000000000     -2.507180000000000      3.345830000000000
H      -6.470550000000000     -3.422270000000000      2.102790000000000
Na     -7.499150000000000     -6.047070000000000      5.082610000000000
Mg     -3.480060000000000     -7.594630000000000     10.166810000000000
H      -2.542140000000000     -8.471200000000000     12.971030000000001
C      -1.406530000000000     -6.619430000000000     12.719910000000000
C      -1.979870000000000     -7.920280000000000     12.189230000000000
C      -0.408960000000000     -6.916560000000000     13.835699999999999
H      -0.902540000000000     -6.079090000000000     11.889120000000000
H      -2.238260000000000     -5.987370000000000     13.101360000000000
H      -0.925100000000000     -7.466090000000000     14.652930000000000
H       0.410660000000000     -7.552780000000000     13.435580000000000
C       0.187290000000000     -5.634950000000000     14.398800000000000
H      -1.191650000000000     -8.558640000000000     11.738020000000001
H       0.724690000000000     -5.078480000000000     13.601749999999999
H      -0.614070000000000     -4.992250000000000     14.821249999999999
H       0.905100000000000     -5.892310000000000     15.205080000000001
C      -5.582980000000000     -9.928179999999999      9.734600000000000
C      -6.687390000000000    -10.030730000000000      8.905099999999999
C      -6.782490000000000     -8.835170000000000      8.208349999999999
C      -5.742140000000000     -8.049370000000000      8.652910000000000
N      -5.022320000000000     -8.720230000000001      9.562020000000000
C      -5.393400000000000     -6.636810000000000      8.217300000000000
N      -4.310480000000000     -6.100430000000000      9.069390000000000
C      -3.791330000000000     -4.734500000000000      8.878990000000000
H      -7.348320000000000    -10.882030000000000      8.814100000000000
H      -5.215320000000000    -10.687500000000000     10.412940000000001
H      -7.527150000000000     -8.566890000000001      7.472020000000000
H      -6.295630000000000     -6.005990000000000      8.327090000000000
H      -5.078210000000000     -6.677180000000000      7.154620000000000
C      -4.897640000000000     -3.709520000000000      9.192360000000001
C      -2.625220000000000     -4.507540000000000      9.858210000000000
C      -3.276860000000000     -4.542870000000000      7.441820000000000
H      -5.260680000000000     -3.844340000000000     10.235070000000000
H      -4.515470000000000     -2.672100000000000      9.084619999999999
H      -5.759570000000000     -3.823770000000000      8.504470000000000
H      -1.799660000000000     -5.224010000000000      9.660290000000000
H      -2.220890000000000     -3.475860000000000      9.753620000000000
H      -2.961350000000000     -4.640290000000000     10.908960000000000
H      -2.481820000000000     -5.285310000000000      7.214610000000000
H      -4.098590000000000     -4.664620000000000      6.708370000000000
H      -2.857410000000000     -3.522180000000000      7.310300000000000

-C 0
6-31g(d,p)
****
-H 0
6-31g(d,p)
****
-Mg 0
6-31g(d,p)
****
-N 0
6-31+g(d,p)
****
-Na 0
6-31g(d,p)
****
-O 0
6-31+g(d,p)
****


