%chk=lowest10_c1_a2_speciation0_speciationDFT36_speciationDFT37b_rank06_E165.18.chk
%nprocshared=20
%mem=40GB
#p opt=loose PM7/gen scf=xqc 

lowest10_c1_a2_speciation0_speciationDFT36_speciationDFT37b_rank06_E165.18 DFT input

0 1
Mg      0.132650000000000     -0.532080000000000      0.133070000000000
C      -1.105800000000000     -0.961570000000000     -2.773500000000000
C       1.039420000000000     -1.986740000000000     -2.588870000000000
O       0.218830000000000     -0.879190000000000     -2.284560000000000
C      -1.894510000000000     -2.161480000000000     -2.250020000000000
C       1.411200000000000     -2.025820000000000     -4.061980000000000
H      -1.621590000000000     -0.060530000000000     -2.395700000000000
H      -1.147410000000000     -0.873480000000000     -3.877160000000000
H       1.977240000000000     -1.849190000000000     -2.007330000000000
H       0.617190000000000     -2.950440000000000     -2.236960000000000
H       1.807590000000000     -1.035520000000000     -4.370400000000000
H       2.189260000000000     -2.799530000000000     -4.226300000000000
H       0.521400000000000     -2.279860000000000     -4.672130000000000
H      -1.759370000000000     -2.268770000000000     -1.155460000000000
H      -2.973490000000000     -2.010840000000000     -2.463410000000000
H      -1.568380000000000     -3.091590000000000     -2.755650000000000
H      -0.552640000000000     -2.556360000000000      1.605770000000000
C       1.619260000000000     -2.419710000000000      1.746570000000000
C       0.330570000000000     -2.420290000000000      0.950460000000000
C       1.647640000000000     -1.242430000000000      2.728030000000000
H       1.679150000000000     -3.386170000000000      2.284820000000000
H       2.484250000000000     -2.326630000000000      1.052170000000000
H       1.695460000000000     -0.288100000000000      2.163150000000000
H       0.727290000000000     -1.231530000000000      3.349080000000000
C       2.851510000000000     -1.342560000000000      3.656070000000000
H       0.343850000000000     -3.195880000000000      0.158900000000000
H       2.774330000000000     -2.272090000000000      4.259770000000000
H       3.797590000000000     -1.359690000000000      3.075070000000000
H       2.867210000000000     -0.473340000000000      4.345270000000000
C       2.399920000000000      2.277420000000000      1.406150000000000
C       2.697340000000000      1.530010000000000      0.288890000000000
C       1.570590000000000      1.523780000000000     -0.513240000000000
C       0.611180000000000      2.222430000000000      0.105290000000000
N       1.085420000000000      2.758050000000000      1.319700000000000
C      -0.798900000000000      2.434040000000000     -0.380280000000000
N      -1.588050000000000      1.191770000000000     -0.304990000000000
C      -2.526450000000000      1.027860000000000      0.832500000000000
H       3.636630000000000      1.027360000000000      0.096560000000000
H       3.064110000000000      2.462210000000000      2.237650000000000
H       1.485630000000000      1.018250000000000     -1.463080000000000
H      -0.768220000000000      2.776940000000000     -1.436770000000000
H      -1.257370000000000      3.241480000000000      0.211870000000000
C      -3.626970000000000      2.105710000000000      0.791620000000000
C      -3.204570000000000     -0.348860000000000      0.680850000000000
C      -1.798400000000000      1.057610000000000      2.193760000000000
H      -4.113770000000000      2.114890000000000     -0.206670000000000
H      -4.400710000000000      1.898140000000000      1.561700000000000
H      -3.230770000000000      3.116310000000000      1.006740000000000
H      -2.456370000000000     -1.164730000000000      0.751540000000000
H      -3.959430000000000     -0.518350000000000      1.480200000000000
H      -3.713640000000000     -0.429970000000000     -0.303690000000000
H      -1.081690000000000      0.213440000000000      2.280060000000000
H      -1.245810000000000      2.005950000000000      2.335850000000000
H      -2.529780000000000      0.970200000000000      3.027070000000000
Na     -6.388350000000000      2.849190000000000     12.381390000000000
C      -3.198070000000000      3.618290000000000     12.440220000000000
C      -3.745660000000000      2.600730000000000     10.447740000000000
O      -3.837860000000000      2.505370000000000     11.852729999999999
C      -3.289050000000000      3.502030000000000     13.955150000000000
C      -4.445830000000000      1.405770000000000      9.817290000000000
H      -2.118630000000000      3.646830000000000     12.165480000000001
H      -3.701410000000000      4.565870000000000     12.141320000000000
H      -4.249020000000000      3.523610000000000     10.078920000000000
H      -2.682440000000000      2.576200000000000     10.122669999999999
H      -5.516950000000000      1.391040000000000     10.110590000000000
H      -4.377180000000000      1.472390000000000      8.710599999999999
H      -3.964320000000000      0.461800000000000     10.150210000000000
H      -2.787980000000000      2.571880000000000     14.298040000000000
H      -2.790900000000000      4.374010000000000     14.429520000000000
H      -4.353060000000000      3.479520000000000     14.273540000000001
Na     -2.244680000000000      0.488400000000000     12.434770000000000
Mg      1.561850000000000      5.164110000000000      8.297710000000000
C       4.074520000000000      2.890920000000000     10.165390000000000
C       3.481160000000000      1.822960000000000      8.209590000000000
O       3.001550000000000      2.587820000000000      9.296099999999999
C       3.524690000000000      3.318640000000000     11.517239999999999
C       2.353700000000000      1.593990000000000      7.213180000000000
H       4.724990000000000      2.006180000000000     10.350440000000001
H       4.683280000000000      3.720490000000000      9.747249999999999
H       4.308760000000000      2.346910000000000      7.682940000000000
H       3.831590000000000      0.827700000000000      8.559900000000001
H       1.977010000000000      2.561810000000000      6.825010000000000
H       2.726060000000000      0.989620000000000      6.360060000000000
H       1.518910000000000      1.049940000000000      7.702440000000000
H       2.917000000000000      2.502190000000000     11.958670000000000
H       4.360680000000000      3.569630000000000     12.202680000000001
H       2.885770000000000      4.209400000000000     11.411429999999999
H      -0.531420000000000      2.649050000000000      7.794650000000000
C      -1.006710000000000      4.562790000000000      6.839130000000000
C      -0.539270000000000      3.732900000000000      8.027469999999999
C      -0.085310000000000      4.371610000000000      5.628050000000000
H      -2.040560000000000      4.249400000000000      6.585320000000000
H      -1.013980000000000      5.637580000000000      7.127100000000000
H       0.937550000000000      4.737960000000000      5.865580000000000
H      -0.025100000000000      3.293360000000000      5.367090000000000
C      -0.615070000000000      5.132330000000000      4.416010000000000
H      -1.168640000000000      3.935050000000000      8.916760000000000
H      -1.628020000000000      4.761480000000000      4.149760000000000
H      -0.669540000000000      6.220770000000000      4.631560000000000
H       0.058910000000000      4.972030000000000      3.548120000000000
C       4.074230000000000      4.668210000000000      6.434560000000000
C       5.377640000000000      5.128730000000000      6.512960000000000
C       5.448910000000000      5.933810000000000      7.640440000000000
C       4.196440000000000      5.913460000000000      8.212890000000000
N       3.378450000000000      5.150130000000000      7.470610000000000
C       3.719960000000000      6.625290000000000      9.466329999999999
N       2.402760000000000      6.098720000000000      9.899430000000001
C       1.568100000000000      6.898390000000000     10.816350000000000
H       6.180810000000000      4.905130000000000      5.825810000000000
H       3.670210000000000      4.014910000000000      5.668970000000000
H       6.319750000000000      6.462260000000000      8.006560000000000
H       4.447530000000000      6.442820000000000     10.284100000000000
H       3.681000000000000      7.709500000000000      9.238830000000000
C       0.961720000000000      8.107950000000001     10.085220000000000
C       0.415020000000000      6.008810000000000     11.325580000000000
C       2.397680000000000      7.361930000000000     12.031480000000000
H       0.335670000000000      7.768410000000000      9.231940000000000
H       0.319760000000000      8.693630000000001     10.779140000000000
H       1.748320000000000      8.785489999999999      9.699020000000001
H       0.800420000000000      5.120170000000000     11.868110000000000
H      -0.239860000000000      6.573170000000000     12.025570000000000
H      -0.210300000000000      5.651420000000000     10.480610000000000
H       2.838700000000000      6.484370000000000     12.552899999999999
H       3.223300000000000      8.034190000000001     11.718680000000001
H       1.762770000000000      7.916230000000000     12.754899999999999

-C 0
6-31g(d,p)
****
-H 0
6-31g(d,p)
****
-Mg 0
6-31g(d,p)
****
-N 0
6-31+g(d,p)
****
-Na 0
6-31g(d,p)
****
-O 0
6-31+g(d,p)
****


