%chk=lowest10_c1_a2_speciation0_speciationDFT1_speciationDFT2_rank03_E180.47.chk
%nprocshared=20
%mem=40GB
#p opt=loose PM7/gen scf=xqc 

lowest10_c1_a2_speciation0_speciationDFT1_speciationDFT2_rank03_E180.47 DFT input

0 1
Mg      0.327730000000000      0.541800000000000      0.735120000000000
H      -1.972570000000000      0.775620000000000      2.670310000000000
C      -1.799000000000000      2.854550000000000      1.960920000000000
C      -1.202040000000000      1.540390000000000      2.443910000000000
C      -2.533860000000000      2.742220000000000      0.614020000000000
H      -2.485100000000000      3.236420000000000      2.744190000000000
H      -0.969510000000000      3.582810000000000      1.828850000000000
H      -2.941750000000000      3.747130000000000      0.368810000000000
H      -1.822760000000000      2.456770000000000     -0.190310000000000
C      -3.686730000000000      1.740130000000000      0.626110000000000
H      -0.537870000000000      1.688970000000000      3.319710000000000
H      -3.304970000000000      0.707420000000000      0.766580000000000
H      -4.405990000000000      1.985790000000000      1.434680000000000
H      -4.216490000000000      1.776040000000000     -0.349710000000000
C       0.535840000000000      2.213610000000000     -1.958620000000000
C       0.981990000000000      1.858470000000000     -3.221610000000000
C       1.357030000000000      0.525560000000000     -3.155120000000000
C       1.110450000000000      0.120170000000000     -1.864480000000000
N       0.623200000000000      1.146350000000000     -1.151050000000000
C       1.352050000000000     -1.248910000000000     -1.260440000000000
N       0.711690000000000     -1.336430000000000      0.067720000000000
C       0.770510000000000     -2.584820000000000      0.850150000000000
H       1.035170000000000      2.497740000000000     -4.091400000000000
H       0.178290000000000      3.190830000000000     -1.656240000000000
H       1.755210000000000     -0.083280000000000     -3.955410000000000
H       2.450120000000000     -1.387830000000000     -1.180450000000000
H       0.913700000000000     -2.010180000000000     -1.930860000000000
C       2.226650000000000     -3.035250000000000      1.068360000000000
C       0.113930000000000     -2.344160000000000      2.222210000000000
C      -0.021010000000000     -3.684800000000000      0.116780000000000
H       2.802920000000000     -2.243530000000000      1.593220000000000
H       2.258230000000000     -3.961740000000000      1.681840000000000
H       2.724200000000000     -3.259270000000000      0.102570000000000
H      -0.939080000000000     -2.008750000000000      2.104360000000000
H       0.114060000000000     -3.281530000000000      2.822070000000000
H       0.665880000000000     -1.568300000000000      2.794610000000000
H      -1.076140000000000     -3.364030000000000     -0.028280000000000
H       0.416530000000000     -3.901620000000000     -0.878400000000000
H      -0.015160000000000     -4.631410000000000      0.696980000000000
Na     -6.208380000000000    -13.963780000000000      0.425570000000000
C      -7.562030000000000    -11.290080000000000      1.756900000000000
C      -5.538890000000000    -10.766240000000000      0.788590000000000
O      -6.199100000000000    -11.646879999999999      1.672310000000000
C      -8.266389999999999    -12.233739999999999      2.721030000000000
C      -4.073490000000000    -11.165500000000000      0.689500000000000
H      -7.675900000000000    -10.255990000000001      2.151800000000000
H      -8.057930000000001    -11.385140000000000      0.764140000000000
H      -5.976990000000000    -10.829250000000000     -0.233730000000000
H      -5.581880000000000     -9.719860000000001      1.168410000000000
H      -3.985380000000000    -12.203469999999999      0.303620000000000
H      -3.543400000000000    -10.478970000000000     -0.004230000000000
H      -3.592930000000000    -11.107350000000000      1.689210000000000
H      -7.806970000000000    -12.162620000000000      3.729820000000000
H      -9.340389999999999    -11.960660000000001      2.795820000000000
H      -8.186620000000000    -13.280500000000000      2.358090000000000
Na     -5.225890000000000    -10.988030000000000      4.032070000000000
Mg     -5.192530000000000     -4.328260000000000      3.859960000000000
H      -4.630380000000000     -1.396670000000000      4.651460000000000
C      -6.793790000000000     -1.331840000000000      4.340630000000000
C      -5.400120000000000     -1.796510000000000      3.959740000000000
C      -6.873290000000000      0.188620000000000      4.237530000000000
H      -7.533170000000000     -1.801530000000000      3.655850000000000
H      -7.013360000000000     -1.662090000000000      5.379710000000000
H      -6.121620000000000      0.642630000000000      4.919480000000000
H      -6.645990000000000      0.498390000000000      3.193890000000000
C      -8.257170000000000      0.695820000000000      4.616140000000000
H      -5.160590000000000     -1.543670000000000      2.905630000000000
H      -9.023120000000000      0.268500000000000      3.934600000000000
H      -8.496570000000000      0.412870000000000      5.663250000000000
H      -8.274770000000000      1.802020000000000      4.529240000000000
C      -2.231300000000000     -5.389780000000000      4.252670000000000
C      -1.729400000000000     -6.662080000000000      4.471260000000000
C      -2.816070000000000     -7.522970000000000      4.516530000000000
C      -3.934050000000000     -6.738230000000000      4.338800000000000
N      -3.569320000000000     -5.459750000000000      4.170770000000000
C      -5.386180000000000     -7.181730000000000      4.312660000000000
N      -6.272590000000000     -5.998850000000000      4.272590000000000
C      -7.739200000000000     -6.140240000000000      4.262670000000000
H      -0.688610000000000     -6.934220000000000      4.582250000000000
H      -1.655280000000000     -4.478720000000000      4.157370000000000
H      -2.794520000000000     -8.592960000000000      4.670610000000000
H      -5.589240000000000     -7.763490000000000      5.231690000000000
H      -5.531580000000000     -7.816770000000000      3.414880000000000
C      -8.210020000000000     -6.770430000000000      5.587030000000000
C      -8.369890000000000     -4.741470000000000      4.137040000000000
C      -8.195169999999999     -6.998910000000000      3.070580000000000
H      -7.886810000000000     -6.142550000000000      6.446370000000000
H      -9.317330000000000     -6.855630000000000      5.610980000000000
H      -7.791190000000000     -7.788280000000000      5.720420000000000
H      -8.060700000000001     -4.253960000000000      3.187930000000000
H      -9.480729999999999     -4.810270000000000      4.145140000000000
H      -8.059320000000000     -4.091730000000000      4.983230000000000
H      -7.851870000000000     -6.546400000000000      2.115440000000000
H      -7.787790000000000     -8.026800000000000      3.145030000000000
H      -9.303410000000000     -7.077370000000000      3.048040000000000

-C 0
6-31g(d,p)
****
-H 0
6-31g(d,p)
****
-Mg 0
6-31g(d,p)
****
-N 0
6-31+g(d,p)
****
-Na 0
6-31g(d,p)
****
-O 0
6-31+g(d,p)
****


