%chk=lowest10_c1_a2_speciation0_speciationDFT36_speciationDFT36_rank07_E181.85.chk
%nprocshared=20
%mem=40GB
#p opt=loose PM7/gen scf=xqc 

lowest10_c1_a2_speciation0_speciationDFT36_speciationDFT36_rank07_E181.85 DFT input

0 1
Mg     -0.714700000000000      0.279200000000000      0.278750000000000
C       3.025410000000000      0.301010000000000     -0.086100000000000
C       2.505060000000000     -0.654190000000000      1.947770000000000
O       2.176440000000000      0.380580000000000      1.042600000000000
C       2.991140000000000      1.618480000000000     -0.845790000000000
C       1.537800000000000     -0.633950000000000      3.124140000000000
H       4.086100000000000      0.126520000000000      0.201590000000000
H       2.689260000000000     -0.510970000000000     -0.763540000000000
H       2.442950000000000     -1.649670000000000      1.460060000000000
H       3.530230000000000     -0.509790000000000      2.349340000000000
H       0.498350000000000     -0.806090000000000      2.778810000000000
H       1.807820000000000     -1.435170000000000      3.844250000000000
H       1.590020000000000      0.346700000000000      3.641410000000000
H       3.321350000000000      2.449130000000000     -0.189890000000000
H       3.652970000000000      1.558830000000000     -1.734620000000000
H       1.973320000000000      1.842490000000000     -1.194680000000000
H      -0.639520000000000      1.517290000000000      3.216640000000000
C      -2.627010000000000      0.886180000000000      2.498950000000000
C      -1.281660000000000      1.578690000000000      2.316620000000000
C      -2.460670000000000     -0.596610000000000      2.858090000000000
H      -3.170930000000000      1.412190000000000      3.307610000000000
H      -3.211170000000000      0.967550000000000      1.555150000000000
H      -1.973070000000000     -1.144020000000000      2.021090000000000
H      -1.825660000000000     -0.694830000000000      3.764180000000000
C      -3.815790000000000     -1.237540000000000      3.149020000000000
H      -1.406660000000000      2.627600000000000      1.978840000000000
H      -4.306540000000000     -0.714000000000000      3.997510000000000
H      -4.475240000000000     -1.182030000000000      2.256950000000000
H      -3.678510000000000     -2.304170000000000      3.426160000000000
C       0.322260000000000     -2.702120000000000      0.488490000000000
C       0.867490000000000     -3.541870000000000     -0.466510000000000
C       0.873190000000000     -2.837570000000000     -1.661660000000000
C       0.347610000000000     -1.597190000000000     -1.383700000000000
N       0.030640000000000     -1.527090000000000     -0.083750000000000
C       0.100550000000000     -0.445800000000000     -2.342170000000000
N      -0.176120000000000      0.808040000000000     -1.603420000000000
C      -0.819790000000000      1.935060000000000     -2.307780000000000
H       1.218400000000000     -4.551230000000000     -0.308940000000000
H       0.167570000000000     -2.935450000000000      1.536240000000000
H       1.229150000000000     -3.184080000000000     -2.621810000000000
H       1.000690000000000     -0.289470000000000     -2.970070000000000
H      -0.756950000000000     -0.740470000000000     -2.977870000000000
C      -2.301640000000000      1.634150000000000     -2.594450000000000
C      -0.744520000000000      3.184800000000000     -1.406710000000000
C      -0.069360000000000      2.235160000000000     -3.620690000000000
H      -2.856170000000000      1.469020000000000     -1.645560000000000
H      -2.769070000000000      2.490970000000000     -3.127730000000000
H      -2.420150000000000      0.738370000000000     -3.234490000000000
H       0.307220000000000      3.455770000000000     -1.177010000000000
H      -1.217970000000000      4.059640000000000     -1.905140000000000
H      -1.273080000000000      3.009280000000000     -0.446610000000000
H       1.003540000000000      2.438410000000000     -3.410950000000000
H      -0.132330000000000      1.374980000000000     -4.318800000000000
H      -0.501330000000000      3.121560000000000     -4.131110000000000
Na      0.595110000000000     12.132770000000001      6.911430000000000
C       1.776690000000000      9.272980000000000      8.006779999999999
C      -0.526330000000000      9.259259999999999      8.038729999999999
O       0.626080000000000      9.980210000000000      8.417830000000000
C       3.015550000000000     10.048930000000000      8.430930000000000
C      -1.764750000000000     10.029460000000000      8.473140000000001
H       1.820960000000000      8.270420000000000      8.490919999999999
H       1.802320000000000      9.171680000000000      6.897870000000000
H      -0.571970000000000      9.137530000000000      6.932290000000000
H      -0.552690000000000      8.269240000000000      8.544549999999999
H      -1.784890000000000     11.027820000000000      7.986910000000000
H      -2.677170000000000      9.468190000000000      8.179270000000001
H      -1.764790000000000     10.161690000000000      9.575989999999999
H       3.034960000000000     10.164149999999999      9.535539999999999
H       3.928480000000000      9.503460000000000      8.110730000000000
H       3.015520000000000     11.055520000000000      7.961080000000000
Na      0.655020000000000      9.750740000000000     11.043270000000000
Mg      0.048610000000000      3.015030000000000      8.260420000000000
C       1.309910000000000      2.702190000000000     11.905790000000000
C      -0.994640000000000      2.761280000000000     11.963580000000000
O       0.157480000000000      3.313750000000000     11.361070000000000
C       2.528320000000000      3.561020000000000     11.604730000000000
C      -2.238820000000000      3.332320000000000     11.298230000000000
H       1.249790000000000      2.610210000000000     13.013970000000000
H       1.459190000000000      1.697830000000000     11.455650000000000
H      -1.016890000000000      1.655200000000000     11.849980000000000
H      -1.034370000000000      3.027550000000000     13.042260000000001
H      -2.249590000000000      3.081990000000000     10.218140000000000
H      -3.147510000000000      2.904150000000000     11.771990000000001
H      -2.258600000000000      4.436140000000000     11.414339999999999
H       2.405150000000000      4.569340000000000     12.050660000000001
H       3.439630000000000      3.082090000000000     12.019280000000000
H       2.662560000000000      3.675530000000000     10.517620000000001
H      -1.998870000000000      5.493980000000000      9.050420000000001
C      -2.115040000000000      4.699910000000000      7.011620000000000
C      -1.329220000000000      5.168540000000000      8.228970000000000
C      -3.015390000000000      3.506940000000000      7.354590000000000
H      -2.729680000000000      5.550180000000000      6.649870000000000
H      -1.402080000000000      4.401320000000000      6.211220000000000
H      -2.395290000000000      2.637090000000000      7.663720000000000
H      -3.693650000000000      3.775680000000000      8.192440000000000
C      -3.866330000000000      3.106250000000000      6.153490000000000
H      -0.629510000000000      5.981870000000000      7.952430000000000
H      -4.511130000000000      3.957000000000000      5.845460000000000
H      -3.219470000000000      2.811740000000000      5.301110000000000
H      -4.517850000000000      2.248400000000000      6.423270000000000
C      -1.152700000000000      0.375490000000000      9.536720000000001
C      -0.557810000000000     -0.825780000000000      9.878570000000000
C       0.785630000000000     -0.718630000000000      9.548299999999999
C       0.956100000000000      0.551250000000000      9.039529999999999
N      -0.216650000000000      1.194880000000000      9.033560000000000
C       2.233770000000000      1.193320000000000      8.523149999999999
N       2.050310000000000      2.655750000000000      8.354570000000001
C       2.982110000000000      3.407500000000000      7.491860000000000
H      -1.049230000000000     -1.683830000000000     10.316620000000000
H      -2.197600000000000      0.632620000000000      9.656990000000000
H       1.548160000000000     -1.473780000000000      9.677410000000000
H       3.043870000000000      1.032860000000000      9.263550000000000
H       2.495740000000000      0.693380000000000      7.569670000000000
C       2.720570000000000      3.097090000000000      6.008210000000000
C       2.749470000000000      4.915160000000000      7.723180000000000
C       4.442420000000000      3.078520000000000      7.864050000000000
H       1.678020000000000      3.368920000000000      5.735250000000000
H       3.414500000000000      3.682370000000000      5.365890000000000
H       2.876030000000000      2.023540000000000      5.783540000000000
H       2.930990000000000      5.193600000000000      8.782530000000000
H       3.436380000000000      5.522140000000000      7.092990000000000
H       1.706660000000000      5.197470000000000      7.467370000000000
H       4.624110000000000      3.298760000000000      8.938800000000001
H       4.669320000000000      2.007400000000000      7.683400000000000
H       5.150250000000000      3.683460000000000      7.258450000000000

-C 0
6-31g(d,p)
****
-H 0
6-31g(d,p)
****
-Mg 0
6-31g(d,p)
****
-N 0
6-31+g(d,p)
****
-Na 0
6-31g(d,p)
****
-O 0
6-31+g(d,p)
****


