%chk=lowest10_c1_a2_speciation7_speciationDFT2_speciationDFT37b_rank10_E207.47.chk
%nprocshared=20
%mem=40GB
#p opt=loose PM7/gen scf=xqc 

lowest10_c1_a2_speciation7_speciationDFT2_speciationDFT37b_rank10_E207.47 DFT input

0 1
Mg      0.132710000000000     -0.531750000000000      0.132970000000000
C      -1.105830000000000     -0.961490000000000     -2.773700000000000
C       1.039390000000000     -1.986620000000000     -2.588930000000000
O       0.218740000000000     -0.879100000000000     -2.284660000000000
C      -1.894540000000000     -2.161350000000000     -2.250120000000000
C       1.411210000000000     -2.025690000000000     -4.062020000000000
H      -1.621650000000000     -0.060410000000000     -2.396120000000000
H      -1.147390000000000     -0.873430000000000     -3.877340000000000
H       1.977190000000000     -1.849050000000000     -2.007370000000000
H       0.617170000000000     -2.950330000000000     -2.237030000000000
H       1.807580000000000     -1.035380000000000     -4.370440000000000
H       2.189270000000000     -2.799400000000000     -4.226320000000000
H       0.521420000000000     -2.279770000000000     -4.672180000000000
H      -1.759350000000000     -2.268640000000000     -1.155560000000000
H      -2.973520000000000     -2.010720000000000     -2.463460000000000
H      -1.568410000000000     -3.091490000000000     -2.755700000000000
H      -0.552510000000000     -2.556340000000000      1.605490000000000
C       1.619450000000000     -2.419790000000000      1.746290000000000
C       0.330700000000000     -2.420250000000000      0.950150000000000
C       1.647680000000000     -1.242510000000000      2.727780000000000
H       1.679240000000000     -3.386260000000000      2.284550000000000
H       2.484470000000000     -2.326730000000000      1.051950000000000
H       1.695500000000000     -0.288190000000000      2.162850000000000
H       0.727090000000000     -1.231940000000000      3.348450000000000
C       2.851250000000000     -1.342330000000000      3.656560000000000
H       0.343880000000000     -3.195860000000000      0.158630000000000
H       2.774290000000000     -2.272530000000000      4.259290000000000
H       3.797500000000000     -1.359000000000000      3.075700000000000
H       2.866300000000000     -0.473430000000000      4.347470000000000
C       2.400010000000000      2.277570000000000      1.403030000000000
C       2.697160000000000      1.529980000000000      0.286070000000000
C       1.570320000000000      1.524020000000000     -0.516050000000000
C       0.611040000000000      2.222930000000000      0.102330000000000
N       1.085680000000000      2.758610000000000      1.316480000000000
C      -0.799390000000000      2.434430000000000     -0.382130000000000
N      -1.588200000000000      1.191980000000000     -0.307060000000000
C      -2.526910000000000      1.028430000000000      0.830340000000000
H       3.636360000000000      1.026960000000000      0.094420000000000
H       3.064270000000000      2.462020000000000      2.234570000000000
H       1.485250000000000      1.018110000000000     -1.465480000000000
H      -0.770420000000000      2.779770000000000     -1.437810000000000
H      -1.257020000000000      3.238990000000000      0.213260000000000
C      -3.626860000000000      2.107300000000000      0.789570000000000
C      -3.205220000000000     -0.348260000000000      0.679350000000000
C      -1.798970000000000      1.057050000000000      2.191510000000000
H      -4.113700000000000      2.116890000000000     -0.208600000000000
H      -4.400530000000000      1.899850000000000      1.559820000000000
H      -3.230710000000000      3.118130000000000      1.004370000000000
H      -2.457000000000000     -1.164170000000000      0.750510000000000
H      -3.959750000000000     -0.517520000000000      1.479130000000000
H      -3.714410000000000     -0.429810000000000     -0.304950000000000
H      -1.082590000000000      0.212580000000000      2.277970000000000
H      -1.245850000000000      2.004860000000000      2.333480000000000
H      -2.530410000000000      0.969700000000000      3.024850000000000
Na     -1.164570000000000     11.381560000000000     -4.176610000000000
C      -2.107310000000000      8.568690000000000     -5.354530000000000
C      -4.069330000000000      9.819860000000000     -5.056860000000000
O      -2.771940000000000      9.538119999999999     -4.567560000000000
C      -1.330650000000000      9.229460000000000     -6.489150000000000
C      -5.109640000000000      8.898230000000000     -4.425090000000000
H      -1.383780000000000      8.037680000000000     -4.700350000000000
H      -2.796970000000000      7.788590000000000     -5.748420000000000
H      -4.314500000000000     10.867540000000000     -4.780320000000000
H      -4.129230000000000      9.770619999999999     -6.166770000000000
H      -5.111420000000000      9.012370000000001     -3.321200000000000
H      -6.117150000000000      9.163420000000000     -4.808310000000000
H      -4.900960000000000      7.838680000000000     -4.679290000000000
H      -0.593020000000000      9.951140000000001     -6.079860000000000
H      -0.788480000000000      8.453210000000000     -7.068130000000000
H      -2.019290000000000      9.765420000000001     -7.173610000000000
C      -2.374070000000000     13.113490000000001     -6.789680000000000
C      -0.840500000000000     14.419570000000000     -5.514630000000000
O      -1.612510000000000     13.234730000000001     -5.601560000000000
C      -1.526770000000000     13.034300000000000     -8.060060000000000
C      -1.681260000000000     15.695850000000000     -5.481780000000000
H      -2.924360000000000     12.152400000000000     -6.712290000000000
H      -3.155760000000000     13.897300000000000     -6.860000000000000
H      -0.296260000000000     14.369090000000000     -4.547170000000000
H      -0.052550000000000     14.460010000000000     -6.294930000000000
H      -2.443300000000000     15.628760000000000     -4.677000000000000
H      -1.020230000000000     16.564889999999998     -5.281630000000000
H      -2.179810000000000     15.869120000000001     -6.456730000000000
H      -0.775040000000000     12.222230000000000     -7.968620000000000
H      -2.187840000000000     12.817830000000001     -8.925420000000001
H      -1.016070000000000     13.997750000000000     -8.260070000000001
Na     -3.023470000000000      9.092140000000001     -2.230280000000000
C      -0.455600000000000     10.972590000000000     -1.266260000000000
C      -2.475090000000000     12.156350000000000     -1.242930000000000
O      -1.739420000000000     11.107699999999999     -1.839990000000000
C       0.126460000000000      9.627160000000000     -1.682370000000000
C      -2.058820000000000     13.524080000000000     -1.780560000000000
H       0.218390000000000     11.769959999999999     -1.646080000000000
H      -0.488700000000000     10.989250000000000     -0.153650000000000
H      -3.542740000000000     11.999870000000000     -1.508210000000000
H      -2.428080000000000     12.125460000000000     -0.131930000000000
H      -2.171390000000000     13.550789999999999     -2.883970000000000
H      -2.708400000000000     14.307700000000001     -1.337290000000000
H      -1.006800000000000     13.750769999999999     -1.512660000000000
H       0.179790000000000      9.556060000000000     -2.789960000000000
H       1.148990000000000      9.513220000000000     -1.265950000000000
H      -0.508080000000000      8.800800000000001     -1.299410000000000
C      -3.019090000000000      7.522240000000000      0.688510000000000
C      -2.531480000000000      6.010690000000000     -0.996400000000000
O      -2.742140000000000      7.365590000000000     -0.682000000000000
C      -3.261520000000000      9.001740000000000      0.957070000000000
C      -2.206640000000000      5.914770000000000     -2.480970000000000
H      -3.939090000000000      6.964490000000000      0.975120000000000
H      -2.151140000000000      7.197210000000000      1.304970000000000
H      -1.666000000000000      5.603060000000000     -0.428240000000000
H      -3.450110000000000      5.412040000000000     -0.802990000000000
H      -1.290800000000000      6.502560000000000     -2.705380000000000
H      -2.035210000000000      4.856720000000000     -2.768240000000000
H      -3.048790000000000      6.321060000000000     -3.082380000000000
H      -4.123370000000000      9.363260000000000      0.355440000000000
H      -3.477130000000000      9.166790000000001      2.032950000000000
H      -2.361550000000000      9.587990000000000      0.678150000000000
Mg      5.256900000000000      8.270120000000000     -6.678180000000000
H       4.566040000000000      7.496650000000000     -9.570740000000001
C       4.831170000000000      5.513070000000000     -8.668760000000001
C       5.251550000000000      6.960980000000000     -8.883160000000000
C       3.473400000000000      5.367450000000000     -7.961980000000000
H       4.809740000000000      4.999210000000000     -9.652290000000001
H       5.597800000000000      5.021780000000000     -8.031050000000000
H       3.261090000000000      4.280860000000000     -7.859770000000000
H       3.524080000000000      5.805660000000000     -6.942700000000000
C       2.315520000000000      6.016490000000000     -8.718890000000000
H       6.287580000000000      7.019960000000000     -9.274690000000000
H       2.440030000000000      7.118630000000000     -8.756890000000000
H       2.251170000000000      5.612580000000000     -9.750790000000000
H       1.363210000000000      5.801600000000000     -8.189190000000000
C       4.320680000000000      6.558150000000000     -4.174160000000000
C       3.864190000000000      6.931140000000000     -2.919340000000000
C       3.849290000000000      8.317150000000000     -2.895520000000000
C       4.275220000000000      8.730850000000000     -4.136540000000000
N       4.569920000000000      7.658640000000000     -4.893720000000000
C       4.433440000000000     10.149210000000000     -4.644980000000000
N       4.677240000000000     10.135529999999999     -6.102850000000000
C       4.856030000000000     11.389709999999999     -6.855230000000000
H       3.580360000000000      6.270530000000000     -2.113050000000000
H       4.463390000000000      5.543260000000000     -4.528130000000000
H       3.550910000000000      8.951689999999999     -2.070600000000000
H       5.282610000000000     10.611789999999999     -4.099760000000000
H       3.497460000000000     10.701950000000000     -4.435780000000000
C       6.018060000000000     12.220039999999999     -6.280360000000000
C       5.171160000000000     11.041169999999999     -8.321590000000000
C       3.548630000000000     12.205460000000000     -6.817070000000000
H       6.962170000000000     11.634930000000001     -6.306420000000000
H       6.161230000000000     13.149170000000000     -6.873560000000000
H       5.813570000000000     12.522180000000001     -5.232830000000000
H       4.354000000000000     10.433900000000000     -8.767500000000000
H       5.285660000000000     11.967140000000001     -8.928360000000000
H       6.115720000000000     10.460509999999999     -8.394500000000001
H       2.711110000000000     11.606669999999999     -7.238240000000000
H       3.283240000000000     12.494930000000000     -5.780110000000000
H       3.647380000000000     13.138389999999999     -7.411690000000000

-C 0
6-31g(d,p)
****
-H 0
6-31g(d,p)
****
-Mg 0
6-31g(d,p)
****
-N 0
6-31+g(d,p)
****
-Na 0
6-31g(d,p)
****
-O 0
6-31+g(d,p)
****


