%chk=lowest10_c1_a2_speciation0_speciationDFT2_speciationDFT2_rank02_E171.07.chk
%nprocshared=20
%mem=40GB
#p opt=loose PM7/gen scf=xqc 

lowest10_c1_a2_speciation0_speciationDFT2_speciationDFT2_rank02_E171.07 DFT input

0 1
Mg      0.236980000000000      1.071560000000000      0.135380000000000
H       1.617290000000000      1.712240000000000     -2.536870000000000
C       3.330600000000000      1.691510000000000     -1.152970000000000
C       1.892050000000000      2.037710000000000     -1.512770000000000
C       3.601260000000000      0.179130000000000     -1.080240000000000
H       4.004830000000000      2.168580000000000     -1.893690000000000
H       3.547490000000000      2.118190000000000     -0.149540000000000
H       4.675110000000000      0.040680000000000     -0.827130000000000
H       2.996110000000000     -0.280430000000000     -0.271430000000000
C       3.310240000000000     -0.560660000000000     -2.384010000000000
H       1.691760000000000      3.122430000000000     -1.390500000000000
H       2.224940000000000     -0.531830000000000     -2.614830000000000
H       3.883120000000000     -0.110830000000000     -3.220940000000000
H       3.605990000000000     -1.626210000000000     -2.277220000000000
C       1.698960000000000     -0.587000000000000      2.516620000000000
C       1.067170000000000     -1.778210000000000      3.182790000000000
C      -0.242520000000000     -1.927470000000000      2.731130000000000
C      -0.473260000000000     -1.019350000000000      1.798360000000000
N       0.656480000000000     -0.220550000000000      1.596400000000000
C      -1.778550000000000     -0.774120000000000      1.047040000000000
N      -1.528470000000000      0.070130000000000     -0.142910000000000
C      -2.651450000000000      0.472460000000000     -1.019390000000000
H       1.543290000000000     -2.412720000000000      3.918330000000000
H       2.632210000000000     -0.852930000000000      1.984050000000000
H      -0.959900000000000     -2.661090000000000      3.073210000000000
H      -2.466210000000000     -0.263950000000000      1.755760000000000
H      -2.213550000000000     -1.739880000000000      0.731840000000000
C      -3.771350000000000      1.182160000000000     -0.231540000000000
C      -2.120790000000000      1.439380000000000     -2.095180000000000
C      -3.216970000000000     -0.775480000000000     -1.724750000000000
H      -3.377920000000000      2.086330000000000      0.279260000000000
H      -4.588860000000000      1.496800000000000     -0.918530000000000
H      -4.221780000000000      0.507670000000000      0.524820000000000
H      -1.304270000000000      0.967840000000000     -2.682540000000000
H      -2.933580000000000      1.724440000000000     -2.801440000000000
H      -1.727290000000000      2.369340000000000     -1.631850000000000
H      -2.415490000000000     -1.278230000000000     -2.309120000000000
H      -3.623610000000000     -1.502290000000000     -0.993040000000000
H      -4.040960000000000     -0.502770000000000     -2.418200000000000
Na      4.780340000000000      3.820460000000000      7.373490000000000
C       1.654620000000000      3.283650000000000      6.521550000000000
C       2.560680000000000      1.402380000000000      7.493220000000000
O       2.743990000000000      2.385880000000000      6.497270000000000
C       1.857110000000000      4.342700000000000      5.447860000000000
C       3.749520000000000      0.451710000000000      7.481890000000000
H       0.700490000000000      2.753240000000000      6.300340000000000
H       1.593180000000000      3.805470000000000      7.503700000000000
H       2.507930000000000      1.865880000000000      8.505110000000000
H       1.643840000000000      0.803760000000000      7.290100000000000
H       4.686950000000000      1.008070000000000      7.695710000000000
H       3.612220000000000     -0.330180000000000      8.258850000000001
H       3.836480000000000     -0.039590000000000      6.489520000000000
H       1.919340000000000      3.864580000000000      4.447150000000000
H       1.002730000000000      5.052510000000000      5.455550000000000
H       2.794800000000000      4.906820000000000      5.639500000000000
Na      2.249620000000000      0.971560000000000      4.050360000000000
Mg     -2.141250000000000      6.711750000000000      6.640950000000000
H      -3.768690000000000      9.290380000000001      6.235060000000000
C      -4.109370000000000      8.284050000000001      4.314240000000000
C      -3.210520000000000      8.724100000000000      5.462120000000000
C      -5.196950000000000      7.282870000000000      4.737060000000000
H      -4.571880000000000      9.184320000000000      3.858750000000000
H      -3.473970000000000      7.788420000000000      3.548530000000000
H      -5.794460000000000      7.032040000000000      3.833600000000000
H      -4.730310000000000      6.347230000000000      5.111920000000000
C      -6.144170000000000      7.823040000000000      5.807430000000000
H      -2.366090000000000      9.340170000000001      5.091300000000000
H      -5.602610000000000      7.993690000000000      6.760980000000000
H      -6.612230000000000      8.771100000000001      5.469550000000000
H      -6.943930000000000      7.077110000000000      6.001170000000000
C      -3.044690000000000      3.909760000000000      5.454570000000000
C      -2.995190000000000      2.626490000000000      5.976880000000000
C      -2.448970000000000      2.733050000000000      7.246530000000000
C      -2.207860000000000      4.071420000000000      7.453900000000000
N      -2.558960000000000      4.768780000000000      6.358030000000000
C      -1.627400000000000      4.736310000000000      8.684850000000001
N      -1.770880000000000      6.203560000000000      8.577850000000000
C      -1.293650000000000      7.093710000000000      9.650539999999999
H      -3.315990000000000      1.717960000000000      5.488430000000000
H      -3.411250000000000      4.187610000000000      4.472610000000000
H      -2.261010000000000      1.927010000000000      7.944980000000000
H      -0.560570000000000      4.440390000000000      8.758970000000000
H      -2.185560000000000      4.378590000000000      9.571400000000001
C       0.204640000000000      6.873580000000000      9.926990000000000
C      -1.510460000000000      8.553000000000001      9.209669999999999
C      -2.113420000000000      6.844650000000000     10.931770000000000
H       0.798570000000000      7.051600000000000      9.005140000000001
H       0.559150000000000      7.570220000000000     10.717340000000000
H       0.397820000000000      5.840800000000000     10.282730000000001
H      -2.583990000000000      8.745150000000001      8.994790000000000
H      -1.186130000000000      9.256010000000000     10.009250000000000
H      -0.926110000000000      8.778440000000000      8.292000000000000
H      -3.195150000000000      7.010020000000000     10.732250000000001
H      -1.981250000000000      5.807400000000000     11.300670000000000
H      -1.796940000000000      7.533290000000000     11.743830000000001

-C 0
6-31g(d,p)
****
-H 0
6-31g(d,p)
****
-Mg 0
6-31g(d,p)
****
-N 0
6-31+g(d,p)
****
-Na 0
6-31g(d,p)
****
-O 0
6-31+g(d,p)
****


