%chk=lowest10_c1_a2_speciation0_speciationDFT1_speciationDFT37b_rank07_E165.10.chk
%nprocshared=20
%mem=40GB
#p opt=loose PM7/gen scf=xqc 

lowest10_c1_a2_speciation0_speciationDFT1_speciationDFT37b_rank07_E165.10 DFT input

0 1
Mg     -0.050150000000000     -0.196080000000000      0.555890000000000
C       1.529280000000000     -2.759680000000000     -0.485210000000000
C       2.480910000000000     -1.920340000000000      1.534250000000000
O       1.906580000000000     -1.630440000000000      0.277930000000000
C       0.498190000000000     -3.660210000000000      0.194330000000000
C       3.879800000000000     -2.497740000000000      1.395240000000000
H       1.043470000000000     -2.358940000000000     -1.393020000000000
H       2.408440000000000     -3.322890000000000     -0.855970000000000
H       2.567890000000000     -0.948960000000000      2.068620000000000
H       1.829170000000000     -2.548490000000000      2.175710000000000
H       4.484310000000000     -1.847750000000000      0.728090000000000
H       4.360610000000000     -2.546080000000000      2.393970000000000
H       3.828080000000000     -3.521790000000000      0.974290000000000
H      -0.321640000000000     -3.054670000000000      0.629190000000000
H       0.068560000000000     -4.355390000000000     -0.557010000000000
H       0.974980000000000     -4.263610000000000      0.991620000000000
H      -1.896100000000000     -0.998400000000000      2.193250000000000
C      -0.741730000000000      0.503660000000000      3.275180000000000
C      -0.841230000000000     -0.721960000000000      2.390520000000000
C      -1.367110000000000      1.721240000000000      2.585200000000000
H      -1.265050000000000      0.274400000000000      4.223000000000000
H       0.328650000000000      0.723320000000000      3.486930000000000
H      -0.759450000000000      1.999260000000000      1.698960000000000
H      -2.396130000000000      1.486740000000000      2.240280000000000
C      -1.440090000000000      2.905210000000000      3.541270000000000
H      -0.294380000000000     -1.581840000000000      2.826040000000000
H      -2.092220000000000      2.643040000000000      4.401860000000000
H      -0.429460000000000      3.173180000000000      3.915250000000000
H      -1.877300000000000      3.782860000000000      3.020530000000000
C       0.572230000000000      3.470210000000000     -0.225830000000000
C       1.563590000000000      2.655690000000000      0.287380000000000
C       1.583960000000000      1.517630000000000     -0.494890000000000
C       0.620850000000000      1.665480000000000     -1.400990000000000
N       0.003010000000000      2.914480000000000     -1.234150000000000
C       0.209770000000000      0.668990000000000     -2.457170000000000
N      -0.461950000000000     -0.500620000000000     -1.863520000000000
C      -1.941530000000000     -0.573880000000000     -1.947230000000000
H       2.180890000000000      2.856300000000000      1.155630000000000
H       0.283820000000000      4.437070000000000      0.154410000000000
H       2.241150000000000      0.672630000000000     -0.372910000000000
H       1.119220000000000      0.325100000000000     -2.994380000000000
H      -0.433010000000000      1.177000000000000     -3.193670000000000
C      -2.400010000000000     -0.659160000000000     -3.415840000000000
C      -2.386200000000000     -1.867920000000000     -1.235070000000000
C      -2.620220000000000      0.619900000000000     -1.242110000000000
H      -1.871190000000000     -1.488220000000000     -3.932250000000000
H      -3.493720000000000     -0.848950000000000     -3.469440000000000
H      -2.214180000000000      0.282390000000000     -3.966770000000000
H      -2.120050000000000     -1.835310000000000     -0.158720000000000
H      -3.487830000000000     -2.008610000000000     -1.301480000000000
H      -1.892740000000000     -2.755070000000000     -1.687210000000000
H      -2.389820000000000      0.623230000000000     -0.155620000000000
H      -2.290930000000000      1.584110000000000     -1.674650000000000
H      -3.725030000000000      0.561330000000000     -1.356430000000000
Na     -1.545960000000000     -3.167590000000000      8.686109999999999
C      -4.077850000000000     -2.279960000000000      6.803640000000000
C      -3.916010000000000     -4.575540000000000      6.899340000000000
O      -3.205600000000000     -3.379990000000000      6.657790000000000
C      -3.311020000000000     -0.994930000000000      6.527940000000000
C      -2.967040000000000     -5.756980000000000      6.756540000000000
H      -4.913340000000000     -2.338560000000000      6.070960000000000
H      -4.473770000000000     -2.224260000000000      7.843140000000000
H      -4.323030000000000     -4.591530000000000      7.936220000000000
H      -4.735390000000000     -4.705050000000000      6.155820000000000
H      -2.137180000000000     -5.671650000000000      7.490080000000000
H      -3.515780000000000     -6.704110000000000      6.944890000000000
H      -2.543480000000000     -5.785380000000000      5.730120000000000
H      -2.908620000000000     -1.008320000000000      5.493590000000000
H      -3.988460000000000     -0.121730000000000      6.638340000000000
H      -2.469670000000000     -0.889570000000000      7.245530000000000
Na     -2.722800000000000     -3.464140000000000      4.067120000000000
Mg     -8.497710000000000     -5.602360000000000      1.518750000000000
H     -10.570040000000001     -6.659960000000000     -0.507390000000000
C     -11.642130000000000     -4.940670000000000      0.314920000000000
C     -10.741970000000000     -6.153110000000000      0.464440000000000
C     -13.014260000000000     -5.379860000000000     -0.187930000000000
H     -11.738780000000000     -4.436420000000000      1.301110000000000
H     -11.175160000000000     -4.230660000000000     -0.402430000000000
H     -12.899540000000000     -5.891480000000000     -1.168400000000000
H     -13.461300000000000     -6.092080000000000      0.539770000000000
C     -13.947690000000000     -4.189940000000000     -0.355250000000000
H     -11.136910000000000     -6.862510000000000      1.221520000000000
H     -14.091440000000000     -3.674380000000000      0.618040000000000
H     -13.528050000000000     -3.473960000000000     -1.093480000000000
H     -14.931780000000000     -4.549280000000000     -0.721310000000000
C      -6.201260000000000     -7.671590000000000      0.813090000000000
C      -4.829920000000000     -7.625510000000000      1.001840000000000
C      -4.544380000000000     -6.406910000000000      1.599710000000000
C      -5.750590000000000     -5.755920000000000      1.736320000000000
N      -6.739900000000000     -6.529490000000000      1.269860000000000
C      -6.001130000000000     -4.379290000000000      2.326560000000000
N      -7.413410000000000     -3.993030000000000      2.119670000000000
C      -7.925570000000000     -2.689330000000000      2.577030000000000
H      -4.116850000000000     -8.394550000000001      0.737490000000000
H      -6.763430000000000     -8.486780000000000      0.375660000000000
H      -3.571990000000000     -6.035470000000000      1.891620000000000
H      -5.341510000000000     -3.654740000000000      1.812640000000000
H      -5.756750000000000     -4.423790000000000      3.407600000000000
C      -7.231220000000000     -1.556040000000000      1.798250000000000
C      -9.436890000000000     -2.623370000000000      2.290560000000000
C      -7.699520000000000     -2.515590000000000      4.088680000000000
H      -7.404620000000000     -1.679400000000000      0.706520000000000
H      -7.627640000000000     -0.565500000000000      2.107380000000000
H      -6.137530000000000     -1.552660000000000      1.980400000000000
H      -9.977570000000000     -3.421980000000000      2.841970000000000
H      -9.853389999999999     -1.641130000000000      2.607650000000000
H      -9.638180000000000     -2.747940000000000      1.204950000000000
H      -8.196880000000000     -3.335690000000000      4.650000000000000
H      -6.618010000000000     -2.522860000000000      4.330110000000000
H      -8.115010000000000     -1.545200000000000      4.435910000000000

-C 0
6-31g(d,p)
****
-H 0
6-31g(d,p)
****
-Mg 0
6-31g(d,p)
****
-N 0
6-31+g(d,p)
****
-Na 0
6-31g(d,p)
****
-O 0
6-31+g(d,p)
****


