%chk=lowest10_c1_a2_speciation0_speciationDFT0_speciationDFT0_rank04_E179.02.chk
%nprocshared=20
%mem=40GB
#p opt=loose PM7/gen scf=xqc 

lowest10_c1_a2_speciation0_speciationDFT0_speciationDFT0_rank04_E179.02 DFT input

0 1
Mg     -0.409370000000000      0.005120000000000      1.102160000000000
H      -3.262320000000000      0.733830000000000      1.889420000000000
C      -2.996530000000000      2.149080000000000      0.226600000000000
C      -2.484780000000000      1.372310000000000      1.425520000000000
C      -3.590340000000000      1.256220000000000     -0.873300000000000
H      -3.783630000000000      2.842440000000000      0.587700000000000
H      -2.167060000000000      2.753670000000000     -0.198790000000000
H      -4.435210000000000      0.656510000000000     -0.469870000000000
H      -3.986180000000000      1.933800000000000     -1.657960000000000
C      -2.575800000000000      0.319440000000000     -1.535610000000000
H      -2.039140000000000      2.058930000000000      2.178670000000000
H      -2.250800000000000     -0.477500000000000     -0.836800000000000
H      -3.053480000000000     -0.166180000000000     -2.414840000000000
H      -1.688360000000000      0.884140000000000     -1.892850000000000
C      -0.966620000000000     -3.065750000000000      0.502830000000000
C      -0.180630000000000     -4.036430000000000     -0.097960000000000
C       1.012390000000000     -3.425930000000000     -0.451390000000000
C       0.898440000000000     -2.109740000000000     -0.070870000000000
N      -0.293770000000000     -1.906020000000000      0.510210000000000
C       1.925290000000000     -1.006710000000000     -0.228150000000000
N       1.306130000000000      0.303360000000000      0.056700000000000
C       2.077020000000000      1.550180000000000     -0.101520000000000
H      -0.442170000000000     -5.072410000000000     -0.257370000000000
H      -1.961850000000000     -3.206170000000000      0.908160000000000
H       1.862210000000000     -3.882830000000000     -0.940410000000000
H       2.753010000000000     -1.214600000000000      0.481410000000000
H       2.296390000000000     -1.021420000000000     -1.268740000000000
C       2.424020000000000      1.754190000000000     -1.589500000000000
C       1.209450000000000      2.734690000000000      0.361550000000000
C       3.363020000000000      1.514470000000000      0.743480000000000
H       1.493340000000000      1.795410000000000     -2.197440000000000
H       2.986480000000000      2.699790000000000     -1.738770000000000
H       3.055460000000000      0.929380000000000     -1.975780000000000
H       0.947350000000000      2.637850000000000      1.436770000000000
H       1.753620000000000      3.695810000000000      0.221760000000000
H       0.268500000000000      2.784740000000000     -0.225590000000000
H       3.116750000000000      1.363570000000000      1.816320000000000
H       4.034260000000000      0.695730000000000      0.412140000000000
H       3.922850000000000      2.469050000000000      0.639160000000000
Na      0.287840000000000    -12.056940000000001      4.895250000000000
C      -0.606070000000000    -15.124200000000000      5.521630000000000
C      -2.047640000000000    -13.644860000000000      6.542300000000000
O      -0.690990000000000    -13.984240000000000      6.349880000000000
C       0.858380000000000    -15.489260000000000      5.322930000000000
C      -2.132490000000000    -12.407159999999999      7.424300000000000
H      -1.111770000000000    -15.996330000000000      5.995450000000000
H      -1.043460000000000    -14.916919999999999      4.518450000000000
H      -2.537610000000000    -13.402970000000000      5.571570000000000
H      -2.590160000000000    -14.468930000000000      7.059460000000000
H      -1.612390000000000    -11.554309999999999      6.938360000000000
H      -3.196780000000000    -12.133229999999999      7.585100000000000
H      -1.660770000000000    -12.607950000000001      8.409890000000001
H       1.332650000000000    -15.715159999999999      6.301630000000000
H       0.936840000000000    -16.385320000000000      4.671250000000000
H       1.400660000000000    -14.647560000000000      4.842060000000000
Na      0.077160000000000    -14.869529999999999      8.712020000000001
Mg     -1.219520000000000     -7.233730000000000      5.697850000000000
H      -2.272810000000000     -4.963090000000000      7.619690000000000
C      -1.670390000000000     -3.736510000000000      5.906450000000000
C      -1.503470000000000     -4.938440000000000      6.821500000000000
C      -3.040590000000000     -3.697190000000000      5.215740000000000
H      -1.550810000000000     -2.820830000000000      6.522230000000000
H      -0.869860000000000     -3.747470000000000      5.136430000000000
H      -3.850990000000000     -3.675820000000000      5.976660000000000
H      -3.090850000000000     -2.758310000000000      4.624980000000000
C      -3.273050000000000     -4.868190000000000      4.258560000000000
H      -0.487100000000000     -4.945420000000000      7.271050000000000
H      -3.321240000000000     -5.828460000000000      4.810700000000000
H      -4.240460000000000     -4.721280000000000      3.731460000000000
H      -2.464520000000000     -4.919050000000000      3.498130000000000
C      -3.926180000000000     -8.894430000000000      5.584280000000000
C      -4.334390000000000     -9.934839999999999      4.765610000000000
C      -3.296480000000000    -10.183650000000000      3.880440000000000
C      -2.309500000000000     -9.271960000000000      4.182950000000000
N      -2.692090000000000     -8.512879999999999      5.218900000000000
C      -0.964130000000000     -9.098610000000001      3.504240000000000
N      -0.326030000000000     -7.851250000000000      3.975480000000000
C       0.975710000000000     -7.415330000000000      3.439630000000000
H      -5.280500000000000    -10.456860000000001      4.809130000000000
H      -4.494030000000000     -8.451890000000001      6.392560000000000
H      -3.270570000000000    -10.931020000000000      3.099310000000000
H      -0.341540000000000     -9.982580000000000      3.747890000000000
H      -1.129820000000000     -9.036989999999999      2.412440000000000
C       0.835900000000000     -7.090730000000000      1.940160000000000
C       1.404030000000000     -6.132690000000000      4.174860000000000
C       2.049360000000000     -8.496610000000000      3.652800000000000
H       0.060590000000000     -6.308030000000000      1.795360000000000
H       1.796060000000000     -6.718420000000000      1.523540000000000
H       0.542060000000000     -7.985890000000000      1.355890000000000
H       1.522850000000000     -6.322250000000000      5.263030000000000
H       2.374510000000000     -5.759220000000000      3.778250000000000
H       0.646290000000000     -5.332010000000000      4.039800000000000
H       2.151810000000000     -8.731600000000000      4.733760000000000
H       1.790910000000000     -9.427700000000000      3.107740000000000
H       3.032870000000000     -8.146940000000001      3.270850000000000

-C 0
6-31g(d,p)
****
-H 0
6-31g(d,p)
****
-Mg 0
6-31g(d,p)
****
-N 0
6-31+g(d,p)
****
-Na 0
6-31g(d,p)
****
-O 0
6-31+g(d,p)
****


