%chk=lowest10_c1_a2_speciation7_speciationDFT36_speciationDFT36_rank04_E222.12.chk
%nprocshared=20
%mem=40GB
#p opt=loose PM7/gen scf=xqc 

lowest10_c1_a2_speciation7_speciationDFT36_speciationDFT36_rank04_E222.12 DFT input

0 1
Mg     -0.026930000000000     -0.762580000000000      0.089100000000000
C       1.506150000000000      2.602410000000000     -0.580610000000000
C       1.000390000000000      1.624090000000000     -2.607250000000000
O       1.509810000000000      1.390070000000000     -1.309580000000000
C       2.424590000000000      2.477140000000000      0.625640000000000
C       0.913990000000000      0.308720000000000     -3.370160000000000
H       1.889530000000000      3.453750000000000     -1.186000000000000
H       0.480660000000000      2.834690000000000     -0.226300000000000
H      -0.014460000000000      2.072310000000000     -2.566170000000000
H       1.673880000000000      2.301010000000000     -3.174120000000000
H       0.225770000000000     -0.395320000000000     -2.860350000000000
H       0.531880000000000      0.495510000000000     -4.396130000000000
H       1.919660000000000     -0.155370000000000     -3.440350000000000
H       3.457900000000000      2.242710000000000      0.299090000000000
H       2.421170000000000      3.425050000000000      1.202930000000000
H       2.086400000000000      1.671920000000000      1.292770000000000
H       1.855880000000000     -2.261960000000000     -2.000580000000000
C       0.266430000000000     -3.496240000000000     -1.100090000000000
C       1.392270000000000     -2.472470000000000     -1.017310000000000
C      -0.845500000000000     -3.043680000000000     -2.056590000000000
H       0.704400000000000     -4.451670000000000     -1.452650000000000
H      -0.166730000000000     -3.645110000000000     -0.085680000000000
H      -1.330540000000000     -2.118000000000000     -1.674640000000000
H      -0.415580000000000     -2.831290000000000     -3.058550000000000
C      -1.904570000000000     -4.133180000000000     -2.208790000000000
H       2.153120000000000     -2.764540000000000     -0.265150000000000
H      -1.438760000000000     -5.059170000000000     -2.609130000000000
H      -2.378580000000000     -4.358460000000000     -1.229880000000000
H      -2.691090000000000     -3.800300000000000     -2.918690000000000
C      -2.094130000000000      0.958410000000000     -1.574810000000000
C      -2.837810000000000      2.071400000000000     -1.224170000000000
C      -2.546680000000000      2.344380000000000      0.104650000000000
C      -1.629750000000000      1.399670000000000      0.502940000000000
N      -1.359480000000000      0.579200000000000     -0.521760000000000
C      -0.998970000000000      1.221830000000000      1.872380000000000
N       0.159660000000000      0.300880000000000      1.805630000000000
C       0.666440000000000     -0.314850000000000      3.048390000000000
H      -3.514700000000000      2.618400000000000     -1.863850000000000
H      -2.082580000000000      0.472600000000000     -2.544600000000000
H      -2.947860000000000      3.145480000000000      0.710010000000000
H      -0.644160000000000      2.203860000000000      2.245530000000000
H      -1.791980000000000      0.829250000000000      2.538190000000000
C      -0.307750000000000     -1.384870000000000      3.572640000000000
C       2.016620000000000     -0.996210000000000      2.744580000000000
C       0.897550000000000      0.770500000000000      4.118190000000000
H      -0.435800000000000     -2.195780000000000      2.823480000000000
H       0.087340000000000     -1.834630000000000      4.510020000000000
H      -1.301880000000000     -0.954730000000000      3.802420000000000
H       2.764690000000000     -0.265320000000000      2.372530000000000
H       2.433880000000000     -1.470830000000000      3.660330000000000
H       1.893560000000000     -1.786190000000000      1.974620000000000
H       1.589480000000000      1.550230000000000      3.731160000000000
H      -0.058960000000000      1.257910000000000      4.396600000000000
H       1.339470000000000      0.333890000000000      5.038380000000000
Na     -0.576850000000000      7.423690000000000      6.344540000000000
C      -1.880270000000000      4.729040000000000      5.227120000000000
C      -2.023860000000000      6.276650000000000      3.470650000000000
O      -2.057360000000000      6.086620000000000      4.872130000000000
C      -0.401060000000000      4.404060000000000      5.407310000000000
C      -3.419350000000000      6.153420000000000      2.864350000000000
H      -2.394180000000000      4.562340000000000      6.197520000000000
H      -2.354180000000000      4.029160000000000      4.502470000000000
H      -1.646830000000000      7.303880000000000      3.278370000000000
H      -1.316020000000000      5.585960000000000      2.960770000000000
H      -4.104910000000000      6.903240000000000      3.311210000000000
H      -3.362550000000000      6.335080000000000      1.770820000000000
H      -3.832460000000000      5.137940000000000      3.034450000000000
H       0.043390000000000      5.059700000000000      6.185040000000000
H      -0.291090000000000      3.347830000000000      5.727060000000000
H       0.149710000000000      4.546180000000000      4.455210000000000
C       1.856400000000000      7.447560000000000      4.026790000000000
C       2.368230000000000      8.909230000000001      5.840720000000000
O       1.399680000000000      8.097020000000001      5.200140000000000
C       2.989790000000000      6.451280000000000      4.273720000000000
C       2.836180000000000     10.089530000000000      4.989630000000000
H       0.996800000000000      6.862400000000000      3.637690000000000
H       2.108050000000000      8.172370000000001      3.225780000000000
H       1.874260000000000      9.338080000000000      6.739190000000000
H       3.219780000000000      8.312480000000001      6.227870000000000
H       1.961060000000000     10.675070000000000      4.637340000000000
H       3.487980000000000     10.747150000000000      5.602240000000000
H       3.429280000000000      9.741890000000000      4.119790000000000
H       2.694890000000000      5.722880000000000      5.058090000000000
H       3.202340000000000      5.900750000000000      3.333100000000000
H       3.920350000000000      6.972550000000000      4.576140000000000
Na     -4.032150000000000      7.192740000000000      5.649620000000000
C      -2.564260000000000      8.703600000000000      8.221230000000000
C      -2.583320000000000     10.049939999999999      6.308170000000000
O      -2.566830000000000      8.728710000000000      6.809340000000000
C      -2.909960000000000      7.295160000000000      8.687519999999999
C      -1.201060000000000     10.699190000000000      6.357220000000000
H      -1.551380000000000      8.948539999999999      8.601150000000001
H      -3.322880000000000      9.392860000000001      8.655950000000001
H      -2.891330000000000      9.990919999999999      5.242250000000000
H      -3.346750000000000     10.682119999999999      6.813070000000000
H      -0.469440000000000     10.081720000000001      5.796650000000000
H      -1.250410000000000     11.704700000000001      5.889250000000000
H      -0.855480000000000     10.819179999999999      7.404320000000000
H      -2.179170000000000      6.564760000000000      8.278930000000001
H      -2.883060000000000      7.247120000000000      9.796550000000000
H      -3.927610000000000      7.016570000000000      8.342950000000000
C      -7.015410000000000      7.726680000000000      6.991640000000000
C      -6.628330000000000      5.447560000000000      6.856750000000000
O      -6.071280000000000      6.728410000000000      6.689010000000000
C      -6.361000000000000      9.082689999999999      6.762910000000000
C      -5.550230000000000      4.418410000000000      6.543920000000000
H      -7.901270000000000      7.654000000000000      6.321060000000000
H      -7.321890000000000      7.667060000000000      8.060029999999999
H      -6.957320000000000      5.292790000000000      7.909000000000000
H      -7.474250000000000      5.288770000000000      6.150580000000000
H      -4.689890000000000      4.551660000000000      7.234240000000000
H      -5.953620000000000      3.391750000000000      6.665360000000000
H      -5.193770000000000      4.545320000000000      5.498620000000000
H      -6.039970000000000      9.178030000000000      5.703070000000000
H      -7.074850000000000      9.898590000000000      6.999380000000000
H      -5.469720000000000      9.185919999999999      7.415920000000000
Mg      2.148740000000000     14.333449999999999     10.670430000000000
C       3.207740000000000     11.894000000000000     13.483040000000001
C       1.099660000000000     12.677659999999999     13.992559999999999
O       2.373250000000000     13.035170000000001     13.496779999999999
C       4.660380000000000     12.331060000000001     13.375800000000000
C       0.164460000000000     13.874960000000000     13.900050000000000
H       3.120920000000000     11.301720000000000     14.422100000000000
H       2.961750000000000     11.250550000000000     12.611739999999999
H       0.657410000000000     11.845310000000000     13.402329999999999
H       1.168140000000000     12.382709999999999     15.062290000000001
H       0.055430000000000     14.200329999999999     12.845720000000000
H      -0.837160000000000     13.599830000000001     14.293139999999999
H       0.567020000000000     14.718130000000000     14.499470000000001
H       4.931980000000000     12.971420000000000     14.240069999999999
H       5.322100000000000     11.440370000000000     13.353220000000000
H       4.824320000000000     12.906520000000000     12.451180000000001
H       1.197840000000000     16.629560000000001     12.857440000000000
C       0.786740000000000     17.020389999999999     10.741540000000001
C       1.696170000000000     16.550920000000001     11.870350000000000
C      -0.498680000000000     16.186250000000001     10.674930000000000
H       0.538190000000000     18.086919999999999     10.920900000000000
H       1.330600000000000     16.932350000000000      9.774880000000000
H      -0.255680000000000     15.126899999999999     10.439769999999999
H      -1.020900000000000     16.221769999999999     11.654949999999999
C      -1.443340000000000     16.727390000000000      9.605490000000000
H       2.647050000000000     17.122250000000001     11.872710000000000
H      -1.716110000000000     17.778980000000001      9.838670000000000
H      -0.964110000000000     16.688179999999999      8.604240000000001
H      -2.372030000000000     16.118980000000001      9.582079999999999
C       0.037470000000000     11.977280000000000     10.833420000000000
C       0.130430000000000     10.642070000000000     10.485659999999999
C       1.410030000000000     10.442729999999999      9.987450000000001
C       2.050500000000000     11.660250000000000     10.077080000000000
N       1.212540000000000     12.573430000000000     10.581569999999999
C       3.474460000000000     12.006169999999999      9.672829999999999
N       3.862110000000000     13.331320000000000     10.215990000000000
C       5.007730000000000     14.049300000000001      9.624820000000000
H      -0.648640000000000      9.899880000000000     10.584440000000001
H      -0.829110000000000     12.473220000000000     11.252409999999999
H       1.826720000000000      9.515590000000000      9.619330000000000
H       4.164460000000000     11.247990000000000     10.096349999999999
H       3.523250000000000     11.977740000000001      8.566229999999999
C       4.643790000000000     14.605779999999999      8.238280000000000
C       5.366940000000000     15.233549999999999     10.545680000000001
C       6.233990000000000     13.118700000000000      9.529760000000000
H       3.782590000000000     15.304000000000000      8.317250000000000
H       5.506410000000000     15.161250000000001      7.809290000000000
H       4.378130000000000     13.794900000000000      7.532030000000000
H       5.644340000000000     14.884449999999999     11.562410000000000
H       6.231120000000000     15.802849999999999     10.137480000000000
H       4.508950000000000     15.931440000000000     10.643570000000000
H       6.489050000000000     12.715430000000000     10.534210000000000
H       6.035630000000000     12.264609999999999      8.849720000000000
H       7.116880000000000     13.667809999999999      9.138850000000000

-C 0
6-31g(d,p)
****
-H 0
6-31g(d,p)
****
-Mg 0
6-31g(d,p)
****
-N 0
6-31+g(d,p)
****
-Na 0
6-31g(d,p)
****
-O 0
6-31+g(d,p)
****


