%chk=lowest10_c1_a2_speciation0_speciationDFT36_speciationDFT96_rank08_E187.35.chk
%nprocshared=20
%mem=40GB
#p opt=loose PM7/gen scf=xqc 

lowest10_c1_a2_speciation0_speciationDFT36_speciationDFT96_rank08_E187.35 DFT input

0 1
Mg     -0.162630000000000     -0.205260000000000     -0.383010000000000
C       3.270660000000000     -0.140730000000000     -1.011270000000000
C       2.308940000000000      2.017270000000000     -0.670860000000000
O       2.176530000000000      0.615780000000000     -0.527390000000000
C       4.560300000000000      0.078740000000000     -0.227210000000000
C       2.376790000000000      2.480030000000000     -2.123820000000000
H       2.988340000000000     -1.208800000000000     -0.888620000000000
H       3.434150000000000      0.003050000000000     -2.096190000000000
H       1.387860000000000      2.463310000000000     -0.246020000000000
H       3.137840000000000      2.422480000000000     -0.056000000000000
H       1.529570000000000      2.055610000000000     -2.701270000000000
H       2.312000000000000      3.587610000000000     -2.155330000000000
H       3.335880000000000      2.178800000000000     -2.588820000000000
H       4.391390000000000     -0.086210000000000      0.855870000000000
H       5.325150000000000     -0.642710000000000     -0.583890000000000
H       4.947660000000000      1.103200000000000     -0.392860000000000
H       0.719010000000000     -2.406410000000000     -2.149970000000000
C       0.632460000000000     -0.793020000000000     -3.637800000000000
C       0.090830000000000     -1.538340000000000     -2.437780000000000
C       0.621460000000000     -1.711450000000000     -4.846990000000000
H       0.005540000000000      0.101120000000000     -3.833670000000000
H       1.665070000000000     -0.455550000000000     -3.423740000000000
H       1.249740000000000     -2.603340000000000     -4.632450000000000
H      -0.422300000000000     -2.040080000000000     -5.043620000000000
C       1.164810000000000     -0.995210000000000     -6.072700000000000
H      -0.976590000000000     -1.814940000000000     -2.561810000000000
H       0.540350000000000     -0.106070000000000     -6.304650000000000
H       2.212400000000000     -0.671270000000000     -5.893550000000000
H       1.142190000000000     -1.690090000000000     -6.936230000000000
C      -1.884760000000000     -0.886860000000000      4.116230000000000
C      -3.126160000000000     -0.468570000000000      3.689930000000000
C      -2.913670000000000      0.544000000000000      2.766920000000000
C      -1.595400000000000      0.684090000000000      2.653040000000000
N      -0.965560000000000     -0.217770000000000      3.524780000000000
C      -0.811510000000000      1.672880000000000      1.811190000000000
N      -0.895200000000000      1.507920000000000      0.348600000000000
C      -2.012560000000000      1.970900000000000     -0.486350000000000
H      -4.079160000000000     -0.853730000000000      4.030700000000000
H      -1.676760000000000     -1.660640000000000      4.840970000000000
H      -3.684040000000000      1.103320000000000      2.266700000000000
H       0.258310000000000      1.515200000000000      2.067740000000000
H      -1.046300000000000      2.708480000000000      2.104950000000000
C      -2.688610000000000      3.200480000000000      0.124960000000000
C      -1.426710000000000      2.366280000000000     -1.856560000000000
C      -3.014920000000000      0.823720000000000     -0.728780000000000
H      -1.929970000000000      3.999560000000000      0.275650000000000
H      -3.483940000000000      3.580640000000000     -0.546420000000000
H      -3.143440000000000      2.953840000000000      1.101530000000000
H      -0.911900000000000      1.502230000000000     -2.322430000000000
H      -2.224880000000000      2.702830000000000     -2.552910000000000
H      -0.681430000000000      3.182970000000000     -1.750580000000000
H      -2.531760000000000     -0.021100000000000     -1.268520000000000
H      -3.421560000000000      0.415550000000000      0.206630000000000
H      -3.865990000000000      1.179080000000000     -1.347990000000000
C      -0.038850000000000     -2.674450000000000      1.580700000000000
C       1.747120000000000     -1.227600000000000      2.113220000000000
O       0.854010000000000     -1.681330000000000      1.115980000000000
C      -1.411240000000000     -2.490010000000000      0.928880000000000
C       2.863060000000000     -2.226760000000000      2.342130000000000
H       0.357870000000000     -3.666870000000000      1.287000000000000
H      -0.184600000000000     -2.654320000000000      2.682100000000000
H       2.188400000000000     -0.271210000000000      1.769160000000000
H       1.249750000000000     -0.979700000000000      3.066590000000000
H       3.384730000000000     -2.433030000000000      1.385000000000000
H       3.582260000000000     -1.806780000000000      3.075000000000000
H       2.438490000000000     -3.167710000000000      2.746440000000000
H      -1.854740000000000     -1.514350000000000      1.197220000000000
H      -1.338390000000000     -2.535750000000000     -0.176110000000000
H      -2.100970000000000     -3.288050000000000      1.272400000000000
Na      7.496920000000000      2.188700000000000      5.608820000000000
C       4.430680000000000      2.594310000000000      6.702750000000000
C       5.570440000000000      4.595760000000000      6.735030000000000
O       5.618450000000000      3.237180000000000      7.114060000000000
C       4.483010000000000      1.133320000000000      7.126670000000000
C       6.856630000000000      5.283360000000000      7.169580000000000
H       3.540290000000000      3.057220000000000      7.186910000000000
H       4.330220000000000      2.622860000000000      5.593830000000000
H       5.488000000000000      4.696170000000000      5.628600000000000
H       4.726150000000000      5.113630000000000      7.240710000000000
H       7.731480000000000      4.801830000000000      6.683470000000000
H       6.826710000000000      6.354190000000000      6.875680000000000
H       6.971180000000000      5.217480000000000      8.272449999999999
H       4.572980000000000      1.058750000000000      8.231320000000000
H       3.554140000000000      0.615520000000000      6.806250000000000
H       5.354770000000000      0.629970000000000      6.656930000000000
Na      5.405590000000000      3.327120000000000      9.738040000000000
Mg     -0.123830000000000      7.218780000000000      6.959570000000000
C      -1.026500000000000      6.284480000000000     10.600899999999999
C       0.176760000000000      8.250890000000000     10.658989999999999
O       0.079230000000000      6.976970000000000     10.056190000000001
C      -0.891890000000000      4.799850000000000     10.299880000000000
C       1.293840000000000      9.042949999999999      9.994429999999999
H      -1.076090000000000      6.382500000000000     11.709059999999999
H      -1.971030000000000      6.657290000000000     10.150990000000000
H      -0.769890000000000      8.823270000000001     10.545280000000000
H       0.426550000000000      8.152020000000000     11.737760000000000
H       1.083090000000000      9.177980000000000      8.914280000000000
H       1.377310000000000     10.043799999999999     10.468600000000000
H       2.259510000000000      8.507960000000001     10.110820000000000
H       0.043050000000000      4.402430000000000     10.745540000000000
H      -1.762250000000000      4.250120000000000     10.714589999999999
H      -0.860010000000000      4.625950000000000      9.212910000000001
H       3.043310000000000      7.753060000000000      7.748120000000000
C       2.415180000000000      8.251090000000000      5.708520000000000
C       2.427560000000000      7.336150000000000      6.925880000000000
C       1.832410000000000      9.627560000000001      6.050940000000000
H       3.459010000000000      8.357950000000001      5.347260000000000
H       1.800300000000000      7.783010000000000      4.908020000000000
H       0.768880000000000      9.526100000000000      6.359780000000000
H       2.404070000000000     10.080120000000001      6.889210000000000
C       1.912320000000000     10.565600000000000      4.850050000000000
H       2.781420000000000      6.323200000000000      6.649610000000000
H       2.971970000000000     10.697369999999999      4.543000000000000
H       1.332770000000000     10.156720000000000      3.995230000000000
H       1.497250000000000     11.559150000000001      5.121510000000000
C      -1.808850000000000      9.579990000000000      8.235390000000001
C      -3.146610000000000      9.665120000000000      8.576710000000000
C      -3.725620000000000      8.448130000000001      8.246160000000000
C      -2.710600000000000      7.665740000000000      7.737550000000000
N      -1.567210000000000      8.359059999999999      7.732150000000000
C      -2.793800000000000      6.238040000000000      7.220210000000000
N      -1.435760000000000      5.664780000000000      7.052400000000000
C      -1.250940000000000      4.481850000000000      6.189330000000000
H      -3.644230000000000     10.519840000000000      9.014659999999999
H      -1.063840000000000     10.356199999999999      8.355869999999999
H      -4.760740000000000      8.165430000000001      8.374770000000000
H      -3.339010000000000      5.616520000000000      7.959350000000000
H      -3.356530000000000      6.262610000000000      6.266190000000000
C      -1.389100000000000      4.863840000000000      4.706910000000000
C       0.170950000000000      3.928700000000000      6.419340000000000
C      -2.266240000000000      3.381340000000000      6.559980000000000
H      -0.631220000000000      5.628870000000000      4.432140000000000
H      -1.230470000000000      3.969350000000000      4.069270000000000
H      -2.396380000000000      5.265380000000000      4.481360000000000
H       0.321760000000000      3.632090000000000      7.478500000000000
H       0.352270000000000      3.030490000000000      5.788310000000000
H       0.936940000000000      4.690540000000000      6.163320000000000
H      -2.166660000000000      3.113620000000000      7.634660000000000
H      -3.307050000000000      3.721070000000000      6.379290000000000
H      -2.096500000000000      2.466040000000000      5.953340000000000

-C 0
6-31g(d,p)
****
-H 0
6-31g(d,p)
****
-Mg 0
6-31g(d,p)
****
-N 0
6-31+g(d,p)
****
-Na 0
6-31g(d,p)
****
-O 0
6-31+g(d,p)
****


