%chk=lowest10_c1_a2_speciation0_speciationDFT1_speciationDFT36_rank09_E181.50.chk
%nprocshared=20
%mem=40GB
#p opt=loose PM7/gen scf=xqc 

lowest10_c1_a2_speciation0_speciationDFT1_speciationDFT36_rank09_E181.50 DFT input

0 1
Mg      0.144910000000000     -0.711160000000000      0.279240000000000
C      -1.743920000000000      2.517140000000000     -0.086680000000000
C      -0.655850000000000      2.544270000000000      1.946630000000000
O      -1.387950000000000      1.742180000000000      1.041840000000000
C      -2.867820000000000      1.828570000000000     -0.846030000000000
C      -0.189020000000000      1.696370000000000      3.122450000000000
H      -2.123200000000000      3.522920000000000      0.201170000000000
H      -0.872760000000000      2.632090000000000     -0.764230000000000
H       0.237010000000000      2.988500000000000      1.458730000000000
H      -1.293530000000000      3.359670000000000      2.348650000000000
H       0.479640000000000      0.882220000000000      2.777070000000000
H       0.369710000000000      2.330840000000000      3.842680000000000
H      -1.064240000000000      1.250950000000000      3.639470000000000
H      -3.752170000000000      1.699190000000000     -0.189960000000000
H      -3.147230000000000      2.431500000000000     -1.734820000000000
H      -2.552880000000000      0.835100000000000     -1.194860000000000
H      -0.965980000000000     -1.266080000000000      3.215580000000000
C       0.574850000000000     -2.671480000000000      2.499620000000000
C      -0.698480000000000     -1.854210000000000      2.316360000000000
C       1.776030000000000     -1.785350000000000      2.857000000000000
H       0.392470000000000     -3.402980000000000      3.310760000000000
H       0.796140000000000     -3.219590000000000      1.556610000000000
H       2.006040000000000     -1.089830000000000      2.019620000000000
H       1.544000000000000     -1.185740000000000      3.762810000000000
C       3.009050000000000     -2.638120000000000      3.148060000000000
H      -1.544310000000000     -2.488420000000000      1.981120000000000
H       2.801500000000000     -3.324820000000000      3.996710000000000
H       3.290760000000000     -3.237250000000000      2.256210000000000
H       3.864100000000000     -1.985800000000000      3.425110000000000
C       2.208630000000000      1.677570000000000      0.488480000000000
C       2.663100000000000      2.569570000000000     -0.466580000000000
C       2.050250000000000      2.222380000000000     -1.661710000000000
C       1.238870000000000      1.146970000000000     -1.383520000000000
N       1.336660000000000      0.837430000000000     -0.083750000000000
C       0.365200000000000      0.357310000000000     -2.342030000000000
N      -0.582260000000000     -0.509240000000000     -1.603130000000000
C      -1.236520000000000     -1.630160000000000     -2.307520000000000
H       3.361790000000000      3.378190000000000     -0.309040000000000
H       2.488070000000000      1.660290000000000      1.536160000000000
H       2.172280000000000      2.703910000000000     -2.621810000000000
H      -0.220250000000000      1.058680000000000     -2.969910000000000
H       1.049140000000000     -0.237940000000000     -2.977730000000000
C      -0.234990000000000     -2.762980000000000     -2.594270000000000
C      -2.356470000000000     -2.189880000000000     -1.406370000000000
C      -1.871600000000000     -1.130260000000000     -3.620460000000000
H       0.185300000000000     -3.160700000000000     -1.645420000000000
H      -0.743300000000000     -3.596170000000000     -3.127610000000000
H       0.600010000000000     -2.417680000000000     -3.234330000000000
H      -3.117000000000000     -1.414540000000000     -1.176700000000000
H      -2.877370000000000     -3.037300000000000     -1.904840000000000
H      -1.940220000000000     -2.559910000000000     -0.446240000000000
H      -2.584040000000000     -0.302700000000000     -3.410770000000000
H      -1.095160000000000     -0.754710000000000     -4.318570000000000
H      -2.423240000000000     -1.947520000000000     -4.130940000000000
Na    -15.569640000000000     -1.016530000000000      7.926580000000000
C     -13.288209999999999     -2.601920000000000      6.185200000000000
C     -12.336090000000000     -1.595760000000000      8.025380000000000
O     -13.174140000000000     -1.394740000000000      6.907520000000000
C     -14.181500000000000     -2.376600000000000      4.973810000000000
C     -12.229490000000000     -0.295100000000000      8.808700000000000
H     -12.293570000000001     -2.936060000000000      5.814640000000000
H     -13.757360000000000     -3.394520000000000      6.811460000000000
H     -12.762810000000000     -2.367260000000000      8.706360000000000
H     -11.309580000000000     -1.884090000000000      7.702630000000000
H     -13.234370000000000      0.023700000000000      9.158849999999999
H     -11.571980000000000     -0.441490000000000      9.691789999999999
H     -11.797779999999999      0.502860000000000      8.167899999999999
H     -13.743110000000000     -1.596990000000000      4.315170000000000
H     -14.277030000000000     -3.321140000000000      4.397300000000000
H     -15.192320000000000     -2.051140000000000      5.299550000000000
Na    -11.731800000000000      0.149950000000000      5.332420000000000
Mg     -5.655120000000000     -2.557740000000000      5.691840000000000
H      -2.607370000000000     -2.931440000000000      5.351510000000000
C      -3.345830000000000     -4.839730000000000      4.581040000000000
C      -3.384000000000000     -3.692230000000000      5.573170000000000
C      -2.002980000000000     -5.557250000000000      4.679110000000000
H      -4.174200000000000     -5.545400000000000      4.809380000000000
H      -3.495670000000000     -4.435280000000000      3.555970000000000
H      -1.186320000000000     -4.836800000000000      4.461490000000000
H      -1.869910000000000     -5.949680000000000      5.710990000000000
C      -1.920960000000000     -6.713160000000000      3.693310000000000
H      -3.301730000000000     -4.055950000000000      6.618930000000000
H      -2.718120000000000     -7.456760000000000      3.906430000000000
H      -2.033140000000000     -6.339340000000000      2.653390000000000
H      -0.932010000000000     -7.206540000000000      3.793950000000000
C      -5.545000000000000      0.429740000000000      6.747890000000000
C      -6.494700000000000      1.437920000000000      6.761660000000000
C      -7.639620000000000      0.922940000000000      6.171960000000000
C      -7.335390000000000     -0.370830000000000      5.810320000000000
N      -6.077340000000000     -0.659250000000000      6.170840000000000
C      -8.236800000000001     -1.378690000000000      5.119230000000000
N      -7.460320000000000     -2.584760000000000      4.760230000000000
C      -8.086440000000000     -3.717590000000000      4.056180000000000
H      -6.369820000000000      2.435700000000000      7.159740000000000
H      -4.536740000000000      0.490610000000000      7.137510000000000
H      -8.579580000000000      1.434160000000000      6.016600000000000
H      -8.639790000000000     -0.912630000000000      4.200210000000000
H      -9.061650000000000     -1.631230000000000      5.816570000000000
C      -8.535780000000001     -3.272670000000000      2.651590000000000
C      -7.044680000000000     -4.840540000000000      3.901790000000000
C      -9.285030000000001     -4.259040000000000      4.854070000000000
H      -7.665430000000000     -2.890370000000000      2.074090000000000
H      -8.982049999999999     -4.122880000000000      2.093080000000000
H      -9.298240000000000     -2.469730000000000      2.707830000000000
H      -6.699380000000000     -5.196600000000000      4.895810000000000
H      -7.480500000000000     -5.707020000000000      3.355860000000000
H      -6.161430000000000     -4.482840000000000      3.330330000000000
H      -8.961530000000000     -4.576090000000000      5.868840000000000
H     -10.073370000000001     -3.486910000000000      4.956060000000000
H      -9.735440000000001     -5.132870000000000      4.336000000000000

-C 0
6-31g(d,p)
****
-H 0
6-31g(d,p)
****
-Mg 0
6-31g(d,p)
****
-N 0
6-31+g(d,p)
****
-Na 0
6-31g(d,p)
****
-O 0
6-31+g(d,p)
****


