%chk=lowest10_c1_a2_speciation0_speciationDFT36_speciationDFT38_rank05_E180.61.chk
%nprocshared=20
%mem=40GB
#p opt=loose PM7/gen scf=xqc 

lowest10_c1_a2_speciation0_speciationDFT36_speciationDFT38_rank05_E180.61 DFT input

0 1
Mg      0.450590000000000      0.141960000000000     -0.896450000000000
C      -2.244430000000000     -1.129890000000000      0.501490000000000
C      -0.349050000000000     -2.521530000000000      0.949030000000000
O      -0.909910000000000     -1.480210000000000      0.179470000000000
C      -2.524260000000000     -0.903460000000000      1.989000000000000
C      -1.002920000000000     -3.865640000000000      0.669520000000000
H      -2.430980000000000     -0.158990000000000      0.002150000000000
H      -2.959730000000000     -1.851680000000000      0.058210000000000
H       0.713450000000000     -2.601220000000000      0.649540000000000
H      -0.317160000000000     -2.277700000000000      2.029160000000000
H      -0.441270000000000     -4.659510000000000      1.203890000000000
H      -0.985970000000000     -4.078200000000000     -0.419500000000000
H      -2.050900000000000     -3.862140000000000      1.027370000000000
H      -1.797170000000000     -0.195830000000000      2.419990000000000
H      -2.489080000000000     -1.860740000000000      2.546760000000000
H      -3.534570000000000     -0.464540000000000      2.111030000000000
H       0.463970000000000     -1.365590000000000     -3.094250000000000
C       2.595190000000000     -1.200540000000000     -2.601470000000000
C       1.185780000000000     -0.600810000000000     -2.743680000000000
C       2.733480000000000     -2.321440000000000     -1.552030000000000
H       2.909310000000000     -1.590650000000000     -3.591750000000000
H       3.292390000000000     -0.387510000000000     -2.305860000000000
H       3.791200000000000     -2.669580000000000     -1.550450000000000
H       2.517700000000000     -1.918460000000000     -0.542110000000000
C       1.843230000000000     -3.533750000000000     -1.824750000000000
H       1.200980000000000      0.245070000000000     -3.457220000000000
H       0.774820000000000     -3.246920000000000     -1.789050000000000
H       2.072400000000000     -3.971350000000000     -2.818290000000000
H       2.017690000000000     -4.308900000000000     -1.046370000000000
C       1.692920000000000     -0.374920000000000      2.802780000000000
C       2.539290000000000     -0.037080000000000      1.771720000000000
C       1.930920000000000      0.976810000000000      1.052820000000000
C       0.741860000000000      1.228760000000000      1.610830000000000
N       0.541750000000000      0.422740000000000      2.749240000000000
C      -0.286070000000000      2.199000000000000      1.092750000000000
N      -0.677190000000000      1.799830000000000     -0.264510000000000
C      -1.567930000000000      2.691130000000000     -1.046180000000000
H       3.491420000000000     -0.504750000000000      1.560070000000000
H       1.867090000000000     -1.146670000000000      3.539010000000000
H       2.325010000000000      1.444360000000000      0.158280000000000
H       0.145740000000000      3.216260000000000      1.105230000000000
H      -1.172480000000000      2.156910000000000      1.759720000000000
C      -0.853250000000000      4.013560000000000     -1.387030000000000
C      -1.947010000000000      1.982280000000000     -2.356800000000000
C      -2.867110000000000      2.998650000000000     -0.262640000000000
H       0.066780000000000      3.817110000000000     -1.975890000000000
H      -1.521140000000000      4.675730000000000     -1.980770000000000
H      -0.577040000000000      4.574690000000000     -0.471570000000000
H      -2.499020000000000      1.040860000000000     -2.151880000000000
H      -2.597260000000000      2.634420000000000     -2.982560000000000
H      -1.035960000000000      1.735690000000000     -2.941240000000000
H      -3.404250000000000      2.060900000000000     -0.005590000000000
H      -2.654930000000000      3.549990000000000      0.677250000000000
H      -3.553020000000000      3.631740000000000     -0.867530000000000
Na      5.857810000000000      3.480470000000000     10.703680000000000
C       3.258370000000000      3.226230000000000      8.715800000000000
C       2.654610000000000      4.203160000000000     10.712429999999999
O       3.322940000000000      3.109770000000000     10.121290000000000
C       3.968700000000000      2.037050000000000      8.084790000000000
C       2.735560000000000      4.080750000000000     12.227080000000001
H       2.201060000000000      3.216470000000000      8.364430000000000
H       3.774540000000000      4.151610000000000      8.372540000000001
H       3.135160000000000      5.165560000000000     10.422650000000001
H       1.578210000000000      4.201480000000000     10.433040000000000
H       3.796590000000000      4.083500000000000     12.555320000000000
H       2.210730000000000      4.937560000000000     12.700730000000000
H       2.254000000000000      3.136870000000000     12.560150000000000
H       3.477370000000000      1.090070000000000      8.394019999999999
H       3.926930000000000      2.118400000000000      6.977900000000000
H       5.032710000000000      2.014540000000000      8.403190000000000
Na      1.744330000000000      1.067930000000000     10.653280000000001
Mg     -2.365460000000000      6.268040000000000      7.565960000000000
C      -4.247200000000000      2.903050000000000      7.249050000000000
C      -4.806560000000000      3.830740000000000      9.285100000000000
O      -3.750630000000000      3.597880000000000      8.375859999999999
C      -3.088090000000000      2.275470000000000      6.490090000000000
C      -4.301430000000000      4.678890000000000     10.443759999999999
H      -4.927800000000000      2.070490000000000      7.538410000000000
H      -4.781430000000000      3.603380000000000      6.572500000000000
H      -5.645260000000000      4.374070000000000      8.797079999999999
H      -5.176960000000000      2.870020000000000      9.704409999999999
H      -3.930190000000000      5.656410000000000     10.074960000000001
H      -5.127400000000000      4.860540000000000     11.163710000000000
H      -3.476480000000000      4.152660000000000     10.968000000000000
H      -2.541950000000000      1.565740000000000      7.144830000000000
H      -3.468260000000000      1.737250000000000      5.596980000000000
H      -2.381980000000000      3.049800000000000      6.151560000000000
H      -1.296050000000000      5.527190000000000     10.609930000000000
C      -0.878660000000000      7.542260000000000      9.857320000000000
C      -0.953230000000000      6.031130000000000      9.683859999999999
C      -2.250500000000000      8.131980000000000     10.206160000000001
H      -0.152310000000000      7.760780000000000     10.667420000000000
H      -0.514560000000000      7.999440000000000      8.910550000000001
H      -2.963490000000000      7.961150000000000      9.369970000000000
H      -2.649800000000000      7.641050000000000     11.119330000000000
C      -2.146460000000000      9.631280000000000     10.470079999999999
H       0.026330000000000      5.626560000000000      9.360760000000001
H      -1.455550000000000      9.818659999999999     11.319810000000000
H      -1.769870000000000     10.161590000000000      9.569680000000000
H      -3.146550000000000     10.036530000000001     10.732200000000001
C      -5.478030000000000      6.811830000000000      7.781730000000000
C      -6.484520000000000      6.758680000000000      6.832710000000000
C      -5.884700000000000      6.400770000000000      5.634090000000000
C      -4.545190000000000      6.229820000000000      5.905920000000000
N      -4.315900000000000      6.486350000000000      7.202980000000000
C      -3.431440000000000      5.837640000000000      4.951080000000000
N      -2.205610000000000      5.468660000000000      5.700080000000000
C      -0.905170000000000      5.461640000000000      5.003300000000000
H      -7.533390000000000      6.960550000000000      6.996370000000000
H      -5.597100000000000      7.065080000000000      8.829200000000000
H      -6.373710000000000      6.268040000000000      4.677900000000000
H      -3.753360000000000      4.952930000000000      4.363830000000000
H      -3.260970000000000      6.694540000000000      4.268990000000000
C      -0.429270000000000      6.897250000000000      4.724380000000000
C       0.131780000000000      4.773260000000000      5.915030000000000
C      -1.004090000000000      4.660450000000000      3.689240000000000
H      -0.324360000000000      7.460500000000000      5.676830000000000
H       0.559740000000000      6.881870000000000      4.216170000000000
H      -1.138000000000000      7.440210000000000      4.068790000000000
H      -0.162760000000000      3.727450000000000      6.143210000000000
H       1.130070000000000      4.742820000000000      5.425240000000000
H       0.235780000000000      5.318980000000000      6.876370000000000
H      -1.353260000000000      3.625250000000000      3.895970000000000
H      -1.715800000000000      5.134850000000000      2.982170000000000
H      -0.014240000000000      4.603590000000000      3.189470000000000

-C 0
6-31g(d,p)
****
-H 0
6-31g(d,p)
****
-Mg 0
6-31g(d,p)
****
-N 0
6-31+g(d,p)
****
-Na 0
6-31g(d,p)
****
-O 0
6-31+g(d,p)
****


