%chk=lowest10_c1_a2_speciation0_speciationDFT36_speciationDFT37b_rank05_E165.16.chk
%nprocshared=20
%mem=40GB
#p opt=loose PM7/gen scf=xqc 

lowest10_c1_a2_speciation0_speciationDFT36_speciationDFT37b_rank05_E165.16 DFT input

0 1
Mg      0.132670000000000     -0.532200000000000      0.133210000000000
C      -1.105820000000000     -0.961640000000000     -2.773550000000000
C       1.039410000000000     -1.986780000000000     -2.588870000000000
O       0.218770000000000     -0.879260000000000     -2.284540000000000
C      -1.894540000000000     -2.161510000000000     -2.250030000000000
C       1.411200000000000     -2.025830000000000     -4.061970000000000
H      -1.621610000000000     -0.060580000000000     -2.395820000000000
H      -1.147410000000000     -0.873550000000000     -3.877210000000000
H       1.977220000000000     -1.849200000000000     -2.007330000000000
H       0.617190000000000     -2.950480000000000     -2.236950000000000
H       1.807580000000000     -1.035520000000000     -4.370390000000000
H       2.189260000000000     -2.799530000000000     -4.226300000000000
H       0.521400000000000     -2.279870000000000     -4.672140000000000
H      -1.759360000000000     -2.268790000000000     -1.155470000000000
H      -2.973510000000000     -2.010860000000000     -2.463410000000000
H      -1.568400000000000     -3.091630000000000     -2.755650000000000
H      -0.552360000000000     -2.556260000000000      1.606080000000000
C       1.619730000000000     -2.419230000000000      1.747630000000000
C       0.331080000000000     -2.420080000000000      0.951100000000000
C       1.647730000000000     -1.241920000000000      2.729520000000000
H       1.679560000000000     -3.385830000000000      2.285610000000000
H       2.484720000000000     -2.326130000000000      1.053220000000000
H       1.695510000000000     -0.287730000000000      2.164410000000000
H       0.726920000000000     -1.231430000000000      3.349800000000000
C       2.851030000000000     -1.341230000000000      3.659070000000000
H       0.344420000000000     -3.195640000000000      0.159440000000000
H       2.774170000000000     -2.271420000000000      4.261740000000000
H       3.797340000000000     -1.357910000000000      3.078240000000000
H       2.865960000000000     -0.472490000000000      4.350290000000000
C       2.400300000000000      2.276550000000000      1.404860000000000
C       2.697520000000000      1.529240000000000      0.287640000000000
C       1.570620000000000      1.523110000000000     -0.514320000000000
C       0.611230000000000      2.221670000000000      0.104370000000000
N       1.085760000000000      2.757140000000000      1.318660000000000
C      -0.799040000000000      2.433480000000000     -0.380770000000000
N      -1.588360000000000      1.191330000000000     -0.305330000000000
C      -2.526780000000000      1.027260000000000      0.832170000000000
H       3.636860000000000      1.026700000000000      0.095410000000000
H       3.064660000000000      2.461280000000000      2.236230000000000
H       1.485600000000000      1.017700000000000     -1.464120000000000
H      -0.768530000000000      2.776530000000000     -1.437210000000000
H      -1.257400000000000      3.240920000000000      0.211460000000000
C      -3.627130000000000      2.105360000000000      0.791980000000000
C      -3.204960000000000     -0.349270000000000      0.680400000000000
C      -1.799050000000000      1.055900000000000      2.193340000000000
H      -4.114150000000000      2.114890000000000     -0.206210000000000
H      -4.400630000000000      1.897890000000000      1.562340000000000
H      -3.230740000000000      3.115860000000000      1.007150000000000
H      -2.456710000000000     -1.165110000000000      0.751170000000000
H      -3.959680000000000     -0.518650000000000      1.479940000000000
H      -3.714060000000000     -0.430230000000000     -0.304070000000000
H      -1.081680000000000      0.212350000000000      2.279260000000000
H      -1.247470000000000      2.004560000000000      2.336670000000000
H      -2.531160000000000      0.965930000000000      3.025410000000000
Na      6.092960000000000      0.745010000000000      6.596720000000000
C       3.026130000000000      1.151430000000000      7.690690000000000
C       4.165760000000000      3.152840000000000      7.723880000000000
O       4.213830000000000      1.794150000000000      8.102349999999999
C       3.078620000000000     -0.309540000000000      8.114280000000001
C       5.451940000000000      3.840270000000000      8.158709999999999
H       2.135770000000000      1.614140000000000      8.175140000000001
H       2.925660000000000      1.180290000000000      6.581800000000000
H       4.083220000000000      3.253600000000000      6.617470000000000
H       3.321560000000000      3.670510000000000      8.229910000000000
H       6.326770000000000      3.358750000000000      7.672580000000000
H       5.422100000000000      4.911160000000000      7.865070000000000
H       5.566390000000000      3.774140000000000      9.261590000000000
H       3.168680000000000     -0.384070000000000      9.219010000000001
H       2.149790000000000     -0.827290000000000      7.793860000000000
H       3.950320000000000     -0.812690000000000      7.644290000000000
Na      4.000950000000000      1.884410000000000     10.728790000000000
Mg     -1.528730000000000      5.777040000000000      7.947290000000000
C      -2.430730000000000      4.841550000000000     11.591630000000000
C      -1.227290000000000      6.807830000000000     11.649470000000001
O      -1.324900000000000      5.533840000000000     11.046920000000000
C      -2.296160000000000      3.356960000000000     11.290540000000000
C      -0.110630000000000      7.599830000000000     10.984209999999999
H      -2.480330000000000      4.939600000000000     12.699800000000000
H      -3.375180000000000      5.214440000000000     11.141550000000001
H      -2.174060000000000      7.380150000000000     11.535900000000000
H      -0.976920000000000      6.709080000000000     12.728160000000001
H      -0.321950000000000      7.734380000000000      9.904109999999999
H      -0.027110000000000      8.600840000000000     11.458010000000000
H       0.855180000000000      7.065020000000000     11.100339999999999
H      -1.361330000000000      2.959470000000000     11.736450000000000
H      -3.166580000000000      2.807210000000000     11.705100000000000
H      -2.264090000000000      3.183380000000000     10.203450000000000
H       1.641260000000000      6.310830000000000      8.736670000000000
C       1.012010000000000      6.808410000000000      6.697640000000000
C       1.024810000000000      5.893620000000000      7.915060000000000
C       0.429000000000000      8.184690000000000      7.040320000000000
H       2.055730000000000      6.915540000000000      6.336050000000000
H       0.397070000000000      6.340110000000000      5.897320000000000
H      -0.634300000000000      8.082810000000000      7.349770000000000
H       1.000950000000000      8.637470000000000      7.878300000000000
C       0.507780000000000      9.122710000000000      5.839390000000000
H       1.379190000000000      4.880920000000000      7.638590000000000
H       1.567190000000000      9.255100000000001      5.531780000000000
H      -0.072010000000000      8.713460000000000      4.984910000000000
H       0.092240000000000     10.116000000000000      6.111090000000000
C      -3.214080000000000      8.135400000000001      9.222690000000000
C      -4.552640000000000      8.223319999999999      9.565510000000000
C      -5.129620000000000      7.005910000000000      9.234760000000000
C      -4.118320000000000      6.221400000000000      8.726050000000001
N      -2.971310000000000      6.919240000000000      8.721000000000000
C      -4.198240000000000      4.795930000000000      8.209820000000001
N      -2.840730000000000      4.222790000000000      8.040480000000001
C      -2.655220000000000      3.040100000000000      7.177980000000000
H      -5.049380000000000      9.077270000000000     10.002920000000000
H      -2.469010000000000      8.914020000000001      9.343700000000000
H      -6.166340000000000      6.722820000000000      9.363880000000000
H      -4.742950000000000      4.173900000000000      8.949949999999999
H      -4.762860000000000      4.818590000000000      7.256160000000000
C      -2.792910000000000      3.421140000000000      5.694300000000000
C      -1.233390000000000      2.487490000000000      7.408820000000000
C      -3.670590000000000      1.939950000000000      7.549800000000000
H      -2.035960000000000      4.187690000000000      5.421050000000000
H      -2.632850000000000      2.527570000000000      5.052860000000000
H      -3.800400000000000      3.822870000000000      5.469660000000000
H      -1.082960000000000      2.191080000000000      8.468159999999999
H      -1.051350000000000      1.589350000000000      6.778210000000000
H      -0.467570000000000      3.249560000000000      7.152950000000000
H      -3.570900000000000      1.672530000000000      8.624580000000000
H      -4.711560000000000      2.279310000000000      7.369120000000000
H      -3.500720000000000      1.024630000000000      6.943990000000000

-C 0
6-31g(d,p)
****
-H 0
6-31g(d,p)
****
-Mg 0
6-31g(d,p)
****
-N 0
6-31+g(d,p)
****
-Na 0
6-31g(d,p)
****
-O 0
6-31+g(d,p)
****


