%chk=lowest10_c1_a1_speciation0_speciationDFT2_rank06_E98.55.chk
%nprocshared=20
%mem=40GB
#p opt=loose PM7/gen scf=xqc 

lowest10_c1_a1_speciation0_speciationDFT2_rank06_E98.55 DFT input

0 1
Na      0.123530000000000      1.974470000000000      0.912030000000000
C      -0.352210000000000     -0.427320000000000     -1.489370000000000
C       0.226430000000000     -1.431310000000000      0.517040000000000
O      -0.019830000000000     -0.208130000000000     -0.137820000000000
C      -0.606030000000000      0.925710000000000     -2.143740000000000
C       0.581590000000000     -1.131000000000000      1.968750000000000
H       0.487880000000000     -0.918400000000000     -2.029530000000000
H      -1.282540000000000     -1.033110000000000     -1.577080000000000
H      -0.682010000000000     -2.075330000000000      0.510570000000000
H       1.087510000000000     -1.964730000000000      0.053830000000000
H      -0.258180000000000     -0.596910000000000      2.463510000000000
H       0.781660000000000     -2.073200000000000      2.520490000000000
H       1.487640000000000     -0.489050000000000      2.014130000000000
H       0.305560000000000      1.557840000000000     -2.076660000000000
H      -0.872650000000000      0.793410000000000     -3.213160000000000
H      -1.440340000000000      1.447930000000000     -1.627590000000000
Mg      3.316650000000000     -3.166190000000000     -5.634430000000000
H       1.109280000000000     -1.766550000000000     -7.131900000000000
C       2.877090000000000     -1.121970000000000     -8.278890000000001
C       2.147360000000000     -1.409700000000000     -6.974480000000000
C       3.104100000000000     -2.369830000000000     -9.149820000000000
H       2.301430000000000     -0.358590000000000     -8.840960000000001
H       3.876050000000000     -0.702460000000000     -8.030300000000000
H       3.623510000000000     -2.042740000000000    -10.076940000000000
H       3.765030000000000     -3.091740000000000     -8.624490000000000
C       1.813770000000000     -3.085830000000000     -9.543820000000000
H       2.154280000000000     -0.531180000000000     -6.297400000000000
H       1.317690000000000     -3.516720000000000     -8.649279999999999
H       1.121540000000000     -2.384340000000000    -10.053760000000000
H       2.051970000000000     -3.922020000000000    -10.235360000000000
C       5.911030000000000     -4.354740000000000     -7.031170000000000
C       6.620630000000000     -5.521710000000000     -6.796780000000000
C       5.973430000000000     -6.185250000000000     -5.765940000000000
C       4.891890000000000     -5.406970000000000     -5.426200000000000
N       4.868040000000000     -4.304120000000000     -6.189410000000000
C       3.859280000000000     -5.673970000000000     -4.349000000000000
N       2.728580000000000     -4.733690000000000     -4.486940000000000
C       1.569960000000000     -4.811650000000000     -3.578140000000000
H       7.511850000000000     -5.850460000000000     -7.312250000000000
H       6.150810000000000     -3.595190000000000     -7.765900000000000
H       6.251140000000000     -7.130290000000000     -5.319380000000000
H       4.361820000000000     -5.546800000000000     -3.367850000000000
H       3.492510000000000     -6.709920000000000     -4.464450000000000
C       2.010270000000000     -4.704500000000000     -2.106510000000000
C       0.609700000000000     -3.650100000000000     -3.895030000000000
C       0.824930000000000     -6.139640000000000     -3.814400000000000
H       2.552060000000000     -3.750340000000000     -1.932110000000000
H       1.126130000000000     -4.737000000000000     -1.433450000000000
H       2.672770000000000     -5.549040000000000     -1.826310000000000
H       0.276860000000000     -3.689720000000000     -4.954540000000000
H      -0.293560000000000     -3.701810000000000     -3.245960000000000
H       1.104820000000000     -2.671210000000000     -3.722300000000000
H       0.495110000000000     -6.209330000000000     -4.874470000000000
H       1.473260000000000     -7.011440000000000     -3.594360000000000
H      -0.068370000000000     -6.215240000000000     -3.159610000000000

-C 0
6-31g(d,p)
****
-H 0
6-31g(d,p)
****
-Mg 0
6-31g(d,p)
****
-N 0
6-31+g(d,p)
****
-Na 0
6-31g(d,p)
****
-O 0
6-31+g(d,p)
****


