%chk=lowest10_c1_a1_speciation0_speciationDFT38_rank10_E98.34.chk
%nprocshared=20
%mem=40GB
#p opt=loose PM7/gen scf=xqc 

lowest10_c1_a1_speciation0_speciationDFT38_rank10_E98.34 DFT input

0 1
Na      0.124060000000000      1.982580000000000      0.915970000000000
C      -0.351200000000000     -0.428700000000000     -1.488970000000000
C       0.228260000000000     -1.430820000000000      0.517160000000000
O      -0.018680000000000     -0.207910000000000     -0.137580000000000
C      -0.605160000000000      0.923880000000000     -2.143990000000000
C       0.581500000000000     -1.132000000000000      1.968910000000000
H       0.487920000000000     -0.922700000000000     -2.029910000000000
H      -1.282420000000000     -1.033320000000000     -1.575270000000000
H      -0.678850000000000     -2.077010000000000      0.508630000000000
H       1.092290000000000     -1.959780000000000      0.056350000000000
H      -0.259090000000000     -0.599170000000000      2.463480000000000
H       0.782010000000000     -2.075300000000000      2.518670000000000
H       1.487220000000000     -0.489680000000000      2.014940000000000
H       0.306430000000000      1.556020000000000     -2.077470000000000
H      -0.872540000000000      0.790940000000000     -3.213100000000000
H      -1.439320000000000      1.446170000000000     -1.627590000000000
Mg      2.504540000000000     -6.525780000000000     -3.527160000000000
C       5.219780000000000     -6.801820000000000     -1.676580000000000
C       5.780990000000000     -5.940320000000000     -3.837820000000000
O       4.829120000000000     -6.588290000000000     -3.021760000000000
C       5.791820000000000     -5.578500000000000     -0.956580000000000
C       7.006800000000000     -6.802510000000000     -4.097070000000000
H       4.294400000000000     -7.074180000000000     -1.132110000000000
H       5.898040000000000     -7.675160000000000     -1.596210000000000
H       5.291850000000000     -5.758390000000000     -4.813860000000000
H       6.040160000000000     -4.930620000000000     -3.462880000000000
H       7.656030000000000     -6.294550000000000     -4.839910000000000
H       6.699600000000000     -7.790500000000000     -4.498170000000000
H       7.577760000000000     -6.947440000000000     -3.159280000000000
H       5.113120000000000     -4.715090000000000     -1.055360000000000
H       6.791160000000000     -5.316000000000000     -1.358080000000000
H       5.897910000000000     -5.803140000000000      0.123540000000000
H       2.765110000000000     -8.804390000000000     -4.891250000000000
C       1.994070000000000     -7.412410000000000     -6.400650000000000
C       2.010330000000000     -7.997150000000000     -4.978030000000000
C       3.299250000000000     -6.723120000000000     -6.845920000000000
H       1.755210000000000     -8.230309999999999     -7.111730000000000
H       1.186620000000000     -6.651150000000000     -6.455560000000000
H       3.158880000000000     -6.348730000000000     -7.885150000000000
H       3.497290000000000     -5.842700000000000     -6.202000000000000
C       4.516540000000000     -7.647660000000000     -6.843450000000000
H       1.011870000000000     -8.399210000000000     -4.719720000000000
H       4.728130000000000     -8.008860000000000     -5.818780000000000
H       4.348200000000000     -8.517360000000000     -7.511640000000000
H       5.409620000000000     -7.090920000000000     -7.203470000000000
C       4.028350000000000     -2.910780000000000     -3.882380000000000
C       2.969990000000000     -3.352200000000000     -4.640620000000000
C       2.081160000000000     -3.985380000000000     -3.788920000000000
C       2.598480000000000     -3.952260000000000     -2.553850000000000
N       3.819790000000000     -3.257800000000000     -2.537530000000000
C       1.996140000000000     -4.605830000000000     -1.336270000000000
N       1.891260000000000     -6.049820000000000     -1.572400000000000
C       1.187960000000000     -6.892190000000000     -0.573750000000000
H       2.873910000000000     -3.239880000000000     -5.713290000000000
H       4.900460000000000     -2.391420000000000     -4.250630000000000
H       1.159760000000000     -4.470800000000000     -4.079380000000000
H       1.006240000000000     -4.154060000000000     -1.142660000000000
H       2.670350000000000     -4.418770000000000     -0.473220000000000
C      -0.313850000000000     -6.548100000000000     -0.531130000000000
C       1.345830000000000     -8.368080000000001     -0.974130000000000
C       1.797570000000000     -6.700370000000000      0.835850000000000
H      -0.777310000000000     -6.707140000000000     -1.526960000000000
H      -0.838980000000000     -7.188250000000000      0.211730000000000
H      -0.482230000000000     -5.496220000000000     -0.223820000000000
H       2.415980000000000     -8.664300000000001     -0.979930000000000
H       0.809150000000000     -9.029120000000001     -0.256540000000000
H       0.927020000000000     -8.542230000000000     -1.987350000000000
H       2.881210000000000     -6.944660000000000      0.833850000000000
H       1.673860000000000     -5.657230000000000      1.194340000000000
H       1.298010000000000     -7.363680000000000      1.576010000000000

-C 0
6-31g(d,p)
****
-H 0
6-31g(d,p)
****
-Mg 0
6-31g(d,p)
****
-N 0
6-31+g(d,p)
****
-Na 0
6-31g(d,p)
****
-O 0
6-31+g(d,p)
****


