%chk=lowest10_c1_a1_speciation3_speciationDFT36_rank05_E137.21.chk
%nprocshared=20
%mem=40GB
#p opt=loose PM7/gen scf=xqc 

lowest10_c1_a1_speciation3_speciationDFT36_rank05_E137.21 DFT input

0 1
Na     -0.368870000000000     -0.049040000000000      0.034370000000000
C      -0.273520000000000      1.428530000000000     -2.731090000000000
C      -2.511580000000000      0.883180000000000     -2.257290000000000
O      -1.153950000000000      0.623600000000000     -1.973730000000000
C       0.032530000000000      2.743080000000000     -2.018500000000000
C      -3.002740000000000     -0.034760000000000     -3.369420000000000
H       0.678880000000000      0.869120000000000     -2.836230000000000
H      -0.641330000000000      1.608720000000000     -3.764000000000000
H      -3.096360000000000      0.664430000000000     -1.337300000000000
H      -2.706690000000000      1.951230000000000     -2.499710000000000
H      -2.848260000000000     -1.097170000000000     -3.083110000000000
H      -4.084720000000000      0.137660000000000     -3.544040000000000
H      -2.449900000000000      0.169420000000000     -4.309050000000000
H       0.446210000000000      2.548980000000000     -1.007320000000000
H       0.785430000000000      3.310520000000000     -2.605140000000000
H      -0.882890000000000      3.361460000000000     -1.923160000000000
C      -0.424740000000000     -1.734830000000000      2.744660000000000
C      -1.809480000000000     -2.733790000000000      1.140310000000000
O      -1.130830000000000     -1.564050000000000      1.535090000000000
C       0.964660000000000     -2.323560000000000      2.507120000000000
C      -2.404720000000000     -2.494470000000000     -0.244020000000000
H      -0.286550000000000     -0.724050000000000      3.183660000000000
H      -0.998800000000000     -2.323550000000000      3.493240000000000
H      -1.120190000000000     -3.601810000000000      1.064620000000000
H      -2.638600000000000     -2.956200000000000      1.845840000000000
H      -1.600630000000000     -2.267870000000000     -0.976980000000000
H      -2.955480000000000     -3.394730000000000     -0.587300000000000
H      -3.106570000000000     -1.634220000000000     -0.213170000000000
H       1.523560000000000     -1.707090000000000      1.773270000000000
H       1.529180000000000     -2.334290000000000      3.462930000000000
H       0.896250000000000     -3.363120000000000      2.129220000000000
C      -0.958230000000000      2.112560000000000      2.259640000000000
C       1.357600000000000      2.231540000000000      1.877400000000000
O       0.154170000000000      1.549840000000000      1.594190000000000
C      -1.637450000000000      3.165490000000000      1.390050000000000
C       2.063390000000000      1.599570000000000      3.071520000000000
H      -1.687980000000000      1.295700000000000      2.445650000000000
H      -0.696090000000000      2.525970000000000      3.257090000000000
H       2.015720000000000      2.130370000000000      0.989560000000000
H       1.211230000000000      3.324020000000000      2.028090000000000
H       2.245230000000000      0.520310000000000      2.882240000000000
H       3.039190000000000      2.102810000000000      3.234370000000000
H       1.446180000000000      1.706550000000000      3.986880000000000
H      -1.952220000000000      2.718660000000000      0.422780000000000
H      -2.537710000000000      3.552140000000000      1.912590000000000
H      -0.948040000000000      4.011980000000000      1.193070000000000
C       2.998270000000000     -0.447040000000000     -0.544430000000000
C       1.544770000000000     -1.769620000000000     -1.833750000000000
O       1.655340000000000     -0.767800000000000     -0.842040000000000
C       3.495120000000000      0.689440000000000     -1.431910000000000
C       1.511000000000000     -3.158050000000000     -1.205090000000000
H       3.033510000000000     -0.104540000000000      0.510830000000000
H       3.675600000000000     -1.327330000000000     -0.604580000000000
H       0.582740000000000     -1.610830000000000     -2.366490000000000
H       2.341910000000000     -1.700710000000000     -2.606620000000000
H       0.675500000000000     -3.228130000000000     -0.480970000000000
H       1.358240000000000     -3.920480000000000     -1.997420000000000
H       2.462620000000000     -3.372830000000000     -0.678220000000000
H       2.839620000000000      1.578880000000000     -1.323250000000000
H       4.526570000000000      0.968720000000000     -1.131380000000000
H       3.504710000000000      0.376630000000000     -2.495890000000000
Mg      1.898030000000000      6.848270000000000      6.285700000000000
C       3.159380000000000     10.074140000000000      4.835820000000000
C       0.854450000000000     10.101380000000001      4.761760000000000
O       2.004010000000000      9.299250000000001      4.579830000000000
C       4.378980000000000      9.385579999999999      4.242180000000000
C      -0.397430000000000      9.253780000000001      4.577740000000000
H       3.099750000000000     11.079940000000001      4.363510000000000
H       3.310590000000000     10.189109999999999      5.928990000000000
H       0.830600000000000     10.545280000000000      5.779020000000000
H       0.825290000000000     10.917170000000000      4.008950000000000
H      -0.433230000000000      8.439590000000001      5.329400000000000
H      -1.300400000000000      9.888500000000001      4.701130000000000
H      -0.407330000000000      8.808380000000000      3.561270000000000
H       4.252910000000000      9.255910000000000      3.148340000000000
H       5.288370000000000      9.988619999999999      4.444420000000000
H       4.523810000000000      8.392230000000000      4.689420000000000
H      -0.086700000000000      6.292370000000000      3.859050000000000
C      -0.239540000000000      4.886200000000000      5.550650000000000
C       0.556980000000000      5.702920000000000      4.540350000000000
C      -1.149410000000000      5.772380000000000      6.412240000000000
H      -0.852190000000000      4.156750000000000      4.986560000000000
H       0.465910000000000      4.336900000000000      6.213460000000000
H      -0.539310000000000      6.467550000000000      7.030580000000000
H      -1.817490000000000      6.372310000000000      5.758300000000000
C      -2.018500000000000      4.919350000000000      7.333870000000000
H       1.271510000000000      5.069190000000000      3.976920000000000
H      -2.649430000000000      4.232790000000000      6.729370000000000
H      -1.387300000000000      4.320000000000000      8.023849999999999
H      -2.686230000000000      5.571450000000000      7.935770000000000
C       0.684790000000000      9.235150000000001      7.969980000000000
C       1.284760000000000     10.127319999999999      8.841010000000001
C       2.626160000000000      9.779980000000000      8.907280000000000
C       2.790960000000000      8.704549999999999      8.065849999999999
N       1.615900000000000      8.395510000000000      7.500420000000000
C       4.057300000000000      7.914290000000000      7.788710000000000
N       3.891500000000000      7.047910000000000      6.598610000000000
C       4.828530000000000      5.926870000000000      6.384280000000000
H       0.799200000000000     10.935950000000000      9.367250000000000
H      -0.362510000000000      9.218030000000001      7.688390000000000
H       3.397030000000000     10.261559999999999      9.492640000000000
H       4.894430000000000      8.615170000000001      7.596570000000000
H       4.264790000000000      7.318570000000000      8.698869999999999
C       4.576410000000000      4.794120000000000      7.395170000000000
C       4.608110000000000      5.366640000000000      4.963860000000000
C       6.283030000000000      6.427130000000000      6.490930000000000
H       3.544800000000000      4.395790000000000      7.284540000000000
H       5.293000000000000      3.961350000000000      7.221980000000000
H       4.712880000000000      5.139630000000000      8.438310000000000
H       4.789440000000000      6.141980000000000      4.190360000000000
H       5.300330000000000      4.519260000000000      4.762140000000000
H       3.568640000000000      4.996100000000000      4.844120000000000
H       6.457500000000000      7.254930000000000      5.769330000000000
H       6.499170000000000      6.802680000000000      7.512490000000000
H       7.001250000000000      5.610180000000000      6.268480000000000

-C 0
6-31g(d,p)
****
-H 0
6-31g(d,p)
****
-Mg 0
6-31g(d,p)
****
-N 0
6-31+g(d,p)
****
-Na 0
6-31g(d,p)
****
-O 0
6-31+g(d,p)
****


