%chk=lowest10_c1_a1_speciation3_speciationDFT96_rank08_E142.42.chk
%nprocshared=20
%mem=40GB
#p opt=loose PM7/gen scf=xqc 

lowest10_c1_a1_speciation3_speciationDFT96_rank08_E142.42 DFT input

0 1
Na     -0.351940000000000     -0.036550000000000      0.120480000000000
C       0.216190000000000      3.002780000000000      0.666700000000000
C      -2.005340000000000      2.537710000000000      1.281620000000000
O      -0.880360000000000      2.120860000000000      0.538880000000000
C       1.101640000000000      2.622180000000000      1.850030000000000
C      -2.910340000000000      3.409850000000000      0.421120000000000
H       0.824450000000000      2.911000000000000     -0.256710000000000
H      -0.096510000000000      4.067480000000000      0.725980000000000
H      -2.571480000000000      1.627430000000000      1.576680000000000
H      -1.732440000000000      3.051700000000000      2.229820000000000
H      -3.214110000000000      2.857170000000000     -0.493640000000000
H      -3.819220000000000      3.683960000000000      0.995310000000000
H      -2.379920000000000      4.337140000000000      0.122700000000000
H       1.447330000000000      1.572240000000000      1.753190000000000
H       1.990930000000000      3.286750000000000      1.870440000000000
H       0.551020000000000      2.735860000000000      2.805780000000000
C      -0.974090000000000     -3.077700000000000     -0.640660000000000
C      -2.744790000000000     -1.695990000000000     -1.305820000000000
O      -1.604820000000000     -1.824810000000000     -0.488110000000000
C       0.007890000000000     -3.074200000000000     -1.810690000000000
C      -3.256530000000000     -0.263680000000000     -1.187390000000000
H      -0.387700000000000     -3.259390000000000      0.284860000000000
H      -1.702390000000000     -3.914600000000000     -0.717160000000000
H      -2.505210000000000     -1.879990000000000     -2.374980000000000
H      -3.546170000000000     -2.385040000000000     -0.962710000000000
H      -2.477300000000000      0.454350000000000     -1.522570000000000
H      -4.161350000000000     -0.125450000000000     -1.814970000000000
H      -3.514020000000000     -0.037480000000000     -0.130930000000000
H       0.735350000000000     -2.243890000000000     -1.699740000000000
H       0.565690000000000     -4.033850000000000     -1.827050000000000
H      -0.524840000000000     -2.962320000000000     -2.776050000000000
C       0.188310000000000     -1.614950000000000      2.804660000000000
C       2.300270000000000     -1.348810000000000      1.807550000000000
O       0.905790000000000     -1.177340000000000      1.668190000000000
C      -0.020060000000000     -0.469190000000000      3.789470000000000
C       2.730910000000000     -2.700250000000000      1.250040000000000
H      -0.810430000000000     -1.958950000000000      2.459880000000000
H       0.662850000000000     -2.489120000000000      3.303610000000000
H       2.796820000000000     -0.552710000000000      1.214750000000000
H       2.650770000000000     -1.215270000000000      2.855180000000000
H       2.415400000000000     -2.795710000000000      0.189540000000000
H       3.836100000000000     -2.788260000000000      1.303750000000000
H       2.274280000000000     -3.523400000000000      1.836850000000000
H      -0.553090000000000      0.370270000000000      3.294210000000000
H      -0.632520000000000     -0.823830000000000      4.645130000000000
H       0.954560000000000     -0.104980000000000      4.174350000000000
C       2.474050000000000      0.227640000000000     -1.830080000000000
C       0.520130000000000      1.227240000000000     -2.668400000000000
O       1.110020000000000      0.512530000000000     -1.600470000000000
C       3.360280000000000      1.340260000000000     -1.281990000000000
C      -0.075280000000000      0.274100000000000     -3.698270000000000
H       2.716370000000000     -0.709270000000000     -1.286370000000000
H       2.699320000000000      0.028330000000000     -2.901150000000000
H      -0.306690000000000      1.838770000000000     -2.247950000000000
H       1.222860000000000      1.944280000000000     -3.147820000000000
H      -0.815030000000000     -0.394250000000000     -3.215120000000000
H      -0.588690000000000      0.857770000000000     -4.490770000000000
H       0.718150000000000     -0.344610000000000     -4.164210000000000
H       3.164940000000000      1.493590000000000     -0.199930000000000
H       4.423210000000000      1.057550000000000     -1.416050000000000
H       3.172290000000000      2.290770000000000     -1.821510000000000
Mg      9.611400000000000      2.565950000000000      1.464950000000000
C       8.718830000000001      5.708980000000000      2.738780000000000
C       7.894080000000000      5.290640000000000      0.539270000000000
O       8.439140000000000      4.755190000000000      1.730550000000000
C       7.473940000000000      6.386340000000000      3.303440000000000
C       8.841650000000000      6.234870000000000     -0.196210000000000
H       9.195990000000000      5.149910000000000      3.572500000000000
H       9.466770000000000      6.456990000000000      2.413640000000000
H       7.721620000000000      4.432180000000000     -0.139920000000000
H       6.892230000000000      5.736620000000000      0.702980000000000
H       9.828760000000001      5.749480000000000     -0.342270000000000
H       8.412080000000000      6.479180000000000     -1.190040000000000
H       8.968790000000000      7.181770000000000      0.364300000000000
H       6.739350000000000      5.630090000000000      3.645800000000000
H       7.768550000000000      7.016050000000000      4.169060000000000
H       7.006910000000000      7.042620000000000      2.543010000000000
H      11.649459999999999      3.687900000000000      3.314740000000000
C      12.183320000000000      4.812460000000000      1.507370000000000
C      11.752780000000000      3.548170000000000      2.218880000000000
C      13.562970000000000      5.221410000000000      1.994490000000000
H      12.204499999999999      4.632830000000000      0.412660000000000
H      11.451110000000000      5.616650000000000      1.715820000000000
H      13.526199999999999      5.392910000000000      3.092440000000000
H      14.282750000000000      4.402110000000000      1.778100000000000
C      14.023870000000001      6.493550000000000      1.301680000000000
H      12.404560000000000      2.685710000000000      1.968310000000000
H      14.074970000000000      6.334130000000000      0.203370000000000
H      13.319290000000001      7.324530000000000      1.519630000000000
H      15.031549999999999      6.764110000000000      1.676580000000000
C       6.956980000000000     -1.441090000000000      2.452630000000000
C       7.618030000000000     -2.067970000000000      1.427920000000000
C       7.829920000000000     -1.130420000000000      0.423660000000000
C       7.327290000000000      0.042350000000000      0.835890000000000
N       6.743810000000000     -0.100820000000000      2.103920000000000
C       7.280440000000000      1.359960000000000      0.085910000000000
N       8.570510000000001      2.024430000000000     -0.161980000000000
C       9.493880000000001      1.682100000000000     -1.254820000000000
H       7.909600000000000     -3.110670000000000      1.422360000000000
H       6.641910000000000     -1.887590000000000      3.385290000000000
H       8.303710000000001     -1.340620000000000     -0.517130000000000
H       6.707960000000000      2.058310000000000      0.735670000000000
H       6.696210000000000      1.260710000000000     -0.843130000000000
C       8.740660000000000      1.115520000000000     -2.461530000000000
C      10.194810000000000      2.985920000000000     -1.683240000000000
C      10.584940000000000      0.715590000000000     -0.751310000000000
H       7.970410000000000      1.846800000000000     -2.791150000000000
H       9.438340000000000      0.925540000000000     -3.301590000000000
H       8.240430000000000      0.164570000000000     -2.201840000000000
H      10.738250000000001      3.433260000000000     -0.826690000000000
H      10.931340000000001      2.798550000000000     -2.494330000000000
H       9.457060000000000      3.735570000000000     -2.040280000000000
H      11.188520000000000      1.183110000000000      0.058320000000000
H      10.167299999999999     -0.215180000000000     -0.342910000000000
H      11.276859999999999      0.449060000000000     -1.578600000000000
C       9.041200000000000      1.013750000000000      4.154520000000000
C       7.274010000000000      2.540800000000000      3.815000000000000
O       8.631710000000000      2.233470000000000      3.567450000000000
C      10.037210000000000      0.301340000000000      3.236610000000000
C       7.079550000000000      3.074080000000000      5.219040000000000
H       9.549130000000000      1.239540000000000      5.113630000000000
H       8.200220000000000      0.312640000000000      4.345080000000000
H       6.960160000000000      3.316190000000000      3.088110000000000
H       6.591250000000000      1.694020000000000      3.636100000000000
H       7.733910000000000      3.954760000000000      5.381190000000000
H       6.017880000000000      3.368770000000000      5.349700000000000
H       7.329560000000000      2.280450000000000      5.951800000000000
H       9.574719999999999      0.046640000000000      2.265590000000000
H      10.920809999999999      0.939690000000000      3.035160000000000
H      10.381480000000000     -0.639920000000000      3.712300000000000

-C 0
6-31g(d,p)
****
-H 0
6-31g(d,p)
****
-Mg 0
6-31g(d,p)
****
-N 0
6-31+g(d,p)
****
-Na 0
6-31g(d,p)
****
-O 0
6-31+g(d,p)
****


