%chk=lowest10_c1_a1_speciation0_speciationDFT2_rank02_E98.37.chk
%nprocshared=20
%mem=40GB
#p opt=loose PM7/gen scf=xqc 

lowest10_c1_a1_speciation0_speciationDFT2_rank02_E98.37 DFT input

0 1
Na     -0.123350000000000      1.974560000000000      0.912030000000000
C      -0.226530000000000     -1.430240000000000      0.516870000000000
C       0.353710000000000     -0.427540000000000     -1.489880000000000
O       0.017010000000000     -0.207260000000000     -0.139430000000000
C      -0.580750000000000     -1.130020000000000      1.968900000000000
C       0.605970000000000      0.925010000000000     -2.145390000000000
H      -1.087740000000000     -1.964120000000000      0.055000000000000
H       0.682350000000000     -2.073820000000000      0.509630000000000
H       1.286940000000000     -1.028180000000000     -1.572410000000000
H      -0.482240000000000     -0.924090000000000     -2.033090000000000
H       1.438620000000000      1.448870000000000     -1.628170000000000
H       0.874680000000000      0.791740000000000     -3.214210000000000
H      -0.306590000000000      1.555930000000000     -2.080030000000000
H      -1.486770000000000     -0.488060000000000      2.014850000000000
H      -0.780910000000000     -2.072320000000000      2.520540000000000
H       0.259330000000000     -0.596350000000000      2.463450000000000
Mg      2.673800000000000     -2.238990000000000     -6.870920000000000
H       0.466580000000000     -0.839460000000000     -8.368610000000000
C       2.234320000000000     -0.194850000000000     -9.515599999999999
C       1.504670000000000     -0.482640000000000     -8.211200000000000
C       2.461280000000000     -1.442720000000000    -10.386509999999999
H       1.658620000000000      0.568540000000000    -10.077620000000000
H       3.233280000000000      0.224660000000000     -9.267010000000001
H       2.980670000000000     -1.115630000000000    -11.313630000000000
H       3.122200000000000     -2.164610000000000     -9.861160000000000
C       1.170920000000000     -2.158700000000000    -10.780460000000000
H       1.511690000000000      0.395850000000000     -7.534110000000000
H       0.674850000000000     -2.589580000000000     -9.885910000000001
H       0.478690000000000     -1.457200000000000    -11.290380000000001
H       1.409090000000000     -2.994900000000000    -11.471990000000000
C       5.268160000000000     -3.427570000000000     -8.267749999999999
C       5.977750000000000     -4.594550000000000     -8.033370000000000
C       5.330560000000000     -5.258090000000000     -7.002540000000000
C       4.249030000000000     -4.479790000000000     -6.662800000000000
N       4.225180000000000     -3.376930000000000     -7.425980000000000
C       3.216450000000000     -4.746790000000000     -5.585610000000000
N       2.085700000000000     -3.806530000000000     -5.723520000000000
C       0.927370000000000     -3.884610000000000     -4.814380000000000
H       6.868970000000000     -4.923310000000000     -8.548850000000000
H       5.507940000000000     -2.668020000000000     -9.002490000000000
H       5.608260000000000     -6.203120000000000     -6.555970000000000
H       3.719040000000000     -4.619630000000000     -4.604480000000000
H       2.849660000000000     -5.782740000000000     -5.701020000000000
C       1.368690000000000     -3.779240000000000     -3.343360000000000
C      -0.032620000000000     -2.721990000000000     -5.129290000000000
C       0.181820000000000     -5.212200000000000     -5.051250000000000
H       1.914690000000000     -2.827600000000000     -3.172240000000000
H       0.485160000000000     -3.808410000000000     -2.669160000000000
H       2.029470000000000     -4.624990000000000     -3.063330000000000
H      -0.364480000000000     -2.759780000000000     -6.189320000000000
H      -0.936660000000000     -2.776540000000000     -4.481720000000000
H       0.460250000000000     -1.742140000000000     -4.951750000000000
H      -0.148130000000000     -5.281450000000000     -6.111270000000000
H       0.830050000000000     -6.084220000000000     -4.831590000000000
H      -0.711280000000000     -5.287960000000000     -4.396210000000000

-C 0
6-31g(d,p)
****
-H 0
6-31g(d,p)
****
-Mg 0
6-31g(d,p)
****
-N 0
6-31+g(d,p)
****
-Na 0
6-31g(d,p)
****
-O 0
6-31+g(d,p)
****


