%chk=lowest10_c1_a1_speciation0_speciationDFT1_rank05_E97.47.chk
%nprocshared=20
%mem=40GB
#p opt=loose PM7/gen scf=xqc 

lowest10_c1_a1_speciation0_speciationDFT1_rank05_E97.47 DFT input

0 1
Na      0.913570000000000      0.606490000000000     -1.824760000000000
C       0.096050000000000     -1.203810000000000      0.970550000000000
C      -1.063160000000000      0.802550000000000      0.969760000000000
O      -0.137750000000000     -0.001180000000000      0.274390000000000
C       1.097380000000000     -2.030700000000000      0.172700000000000
C      -1.274910000000000      2.084680000000000      0.173050000000000
H       0.535430000000000     -1.003610000000000      1.973950000000000
H      -0.841220000000000     -1.795520000000000      1.066040000000000
H      -2.046380000000000      0.287770000000000      1.062210000000000
H      -0.671440000000000      1.081780000000000      1.974150000000000
H      -1.667160000000000      1.843860000000000     -0.838470000000000
H      -2.000840000000000      2.745820000000000      0.691000000000000
H      -0.311400000000000      2.627230000000000      0.061900000000000
H       2.049460000000000     -1.468470000000000      0.059710000000000
H       1.306310000000000     -2.989790000000000      0.691140000000000
H       0.690610000000000     -2.250420000000000     -0.837890000000000
Mg     -2.809480000000000     -6.907440000000000      4.551070000000000
H      -4.234200000000000     -5.598670000000000      2.264480000000000
C      -2.224100000000000     -5.771450000000000      1.405680000000000
C      -3.169840000000000     -5.480740000000000      2.553330000000000
C      -2.456270000000000     -4.754540000000000      0.295680000000000
H      -1.176110000000000     -5.709110000000000      1.772250000000000
H      -2.409610000000000     -6.803760000000000      1.035240000000000
H      -3.511000000000000     -4.824410000000000     -0.048870000000000
H      -2.275500000000000     -3.733450000000000      0.694350000000000
C      -1.527530000000000     -5.001830000000000     -0.882590000000000
H      -2.973850000000000     -4.490580000000000      3.015410000000000
H      -0.467730000000000     -4.919630000000000     -0.560490000000000
H      -1.707590000000000     -6.012810000000000     -1.306040000000000
H      -1.726690000000000     -4.241310000000000     -1.665430000000000
C      -5.336860000000000     -7.226250000000000      6.441570000000000
C      -5.581160000000000     -8.083310000000001      7.502840000000000
C      -4.455340000000000     -8.879860000000001      7.643400000000000
C      -3.579360000000000     -8.486070000000000      6.659710000000000
N      -4.118650000000000     -7.487500000000000      5.945020000000000
C      -2.193880000000000     -9.036080000000000      6.381560000000000
N      -1.663150000000000     -8.476110000000000      5.122460000000000
C      -0.343560000000000     -8.886780000000000      4.609400000000000
H      -6.474400000000000     -8.122180000000000      8.109930000000000
H      -6.007340000000000     -6.462070000000000      6.066230000000000
H      -4.292830000000000     -9.661860000000001      8.372350000000001
H      -2.267250000000000    -10.135240000000000      6.294430000000000
H      -1.546790000000000     -8.754830000000000      7.237320000000000
C      -0.381830000000000    -10.378119999999999      4.225650000000000
C      -0.017570000000000     -8.067040000000000      3.347510000000000
C       0.752600000000000     -8.634630000000000      5.659850000000000
H      -1.162610000000000    -10.555090000000000      3.453430000000000
H       0.598190000000000    -10.706820000000000      3.820480000000000
H      -0.609640000000000    -11.014920000000000      5.103700000000000
H       0.035800000000000     -6.982930000000000      3.583730000000000
H       0.964100000000000     -8.376880000000000      2.923410000000000
H      -0.792240000000000     -8.220789999999999      2.566270000000000
H       0.773860000000000     -7.560490000000000      5.944350000000000
H       0.577930000000000     -9.241930000000000      6.571340000000000
H       1.749530000000000     -8.914859999999999      5.257070000000000

-C 0
6-31g(d,p)
****
-H 0
6-31g(d,p)
****
-Mg 0
6-31g(d,p)
****
-N 0
6-31+g(d,p)
****
-Na 0
6-31g(d,p)
****
-O 0
6-31+g(d,p)
****


