%chk=lowest10_c1_a1_speciation3_speciationDFT36_rank10_E137.60.chk
%nprocshared=20
%mem=40GB
#p opt=loose PM7/gen scf=xqc 

lowest10_c1_a1_speciation3_speciationDFT36_rank10_E137.60 DFT input

0 1
Na      0.224250000000000     -0.049180000000000      0.284940000000000
C      -2.218120000000000      1.428590000000000      1.585450000000000
C      -0.688840000000000      0.883360000000000      3.286640000000000
O      -1.122680000000000      0.622700000000000      1.969550000000000
C      -1.753490000000000      2.743380000000000      0.964780000000000
C      -1.406440000000000     -0.032460000000000      4.269900000000000
H      -2.785270000000000      0.869700000000000      0.812750000000000
H      -2.928870000000000      1.608980000000000      2.420280000000000
H       0.400360000000000      0.665130000000000      3.333210000000000
H      -0.801710000000000      1.950800000000000      3.574280000000000
H      -1.235880000000000     -1.095220000000000      3.993830000000000
H      -1.016790000000000      0.141460000000000      5.294110000000000
H      -2.496520000000000      0.171870000000000      4.260630000000000
H      -1.084650000000000      2.549390000000000      0.100840000000000
H      -2.637870000000000      3.310880000000000      0.605760000000000
H      -1.213500000000000      3.361780000000000      1.710230000000000
C       2.599830000000000     -1.735000000000000     -1.022620000000000
C       1.902780000000000     -2.733780000000000      0.978820000000000
O       1.905300000000000     -1.564110000000000      0.193620000000000
C       1.699440000000000     -2.323740000000000     -2.107120000000000
C       1.001560000000000     -2.494370000000000      2.186500000000000
H       2.910960000000000     -0.724250000000000     -1.361820000000000
H       3.535150000000000     -2.323710000000000     -0.899720000000000
H       1.492610000000000     -3.601840000000000      0.419760000000000
H       2.928370000000000     -2.956170000000000      1.344060000000000
H      -0.035250000000000     -2.267790000000000      1.856610000000000
H       0.979670000000000     -3.394630000000000      2.835110000000000
H       1.379200000000000     -1.634100000000000      2.778860000000000
H       0.784450000000000     -1.707290000000000     -2.224210000000000
H       2.244950000000000     -2.334450000000000     -3.073910000000000
H       1.406390000000000     -3.363300000000000     -1.858930000000000
C       2.447260000000000      2.113610000000000     -0.317440000000000
C       0.956950000000000      2.229340000000000     -2.131540000000000
O       1.315170000000000      1.548980000000000     -0.947620000000000
C       2.031640000000000      3.164160000000000      0.707420000000000
C       1.636820000000000      1.595770000000000     -3.339780000000000
H       2.974210000000000      1.296720000000000      0.220700000000000
H       3.180350000000000      2.531310000000000     -1.042940000000000
H      -0.141180000000000      2.128300000000000     -2.256460000000000
H       1.160840000000000      3.322060000000000     -2.081540000000000
H       1.381830000000000      0.516720000000000     -3.402160000000000
H       1.289620000000000      2.098470000000000     -4.266390000000000
H       2.738230000000000      1.702070000000000     -3.263590000000000
H       1.351640000000000      2.716080000000000      1.463060000000000
H       2.933730000000000      3.551320000000000      1.226420000000000
H       1.515350000000000      4.010530000000000      0.209670000000000
C      -1.960160000000000     -0.447110000000000     -2.342490000000000
C      -2.349890000000000     -1.769620000000000     -0.439040000000000
O      -1.546370000000000     -0.767810000000000     -1.030680000000000
C      -2.977150000000000      0.689380000000000     -2.329020000000000
C      -1.788550000000000     -3.158040000000000     -0.724150000000000
H      -1.063930000000000     -0.104680000000000     -2.900690000000000
H      -2.350900000000000     -1.327410000000000     -2.898980000000000
H      -2.330230000000000     -1.610810000000000      0.660470000000000
H      -3.417790000000000     -1.700740000000000     -0.742940000000000
H      -0.743690000000000     -3.228120000000000     -0.362680000000000
H      -2.398340000000000     -3.920490000000000     -0.195720000000000
H      -1.808090000000000     -3.372810000000000     -1.811730000000000
H      -2.555310000000000      1.578810000000000     -1.815630000000000
H      -3.232590000000000      0.968660000000000     -3.372550000000000
H      -3.903370000000000      0.376570000000000     -1.805340000000000
Mg     -3.303360000000000      4.793260000000000      7.690300000000000
C      -2.043070000000000      4.437040000000000     11.209709999999999
C      -4.347970000000000      4.487520000000000     11.270500000000000
O      -3.198470000000000      5.046200000000000     10.666740000000001
C      -0.823500000000000      5.295450000000000     10.910190000000000
C      -5.599910000000000      5.070670000000000     10.628620000000000
H      -2.102630000000000      4.343190000000000     12.316929999999999
H      -1.891900000000000      3.432870000000000     10.762530000000000
H      -4.371820000000000      3.384610000000000     11.146160000000000
H      -4.377090000000000      4.731590000000000     12.353400000000001
H      -5.635770000000000      4.826790000000000      9.547680000000000
H      -6.502860000000000      4.646480000000000     11.116640000000000
H      -5.609800000000000      6.173640000000000     10.751210000000000
H      -0.949550000000000      6.307590000000000     11.344820000000000
H       0.085920000000000      4.818860000000000     11.331360000000000
H      -0.678760000000000      5.404640000000000      9.826250000000000
H      -5.289380000000000      7.170350000000000      8.424659999999999
C      -5.442180000000000      6.411670000000000      6.359730000000000
C      -4.645690000000000      6.874930000000000      7.573580000000000
C      -6.352750000000000      5.222490000000000      6.695800000000000
H      -6.051590000000000      7.268810000000000      6.009320000000000
H      -4.736510000000000      6.110830000000000      5.553250000000000
H      -5.742650000000000      4.339320000000000      6.988780000000000
H      -7.020850000000000      5.488600000000000      7.542390000000000
C      -7.221350000000000      4.850600000000000      5.496160000000000
H      -3.929720000000000      7.679210000000000      7.308160000000000
H      -7.852290000000000      5.717300000000000      5.203810000000000
H      -6.589830000000000      4.552690000000000      4.632360000000000
H      -7.888970000000000      4.003220000000000      5.760030000000000
C      -4.517050000000000      2.141970000000000      8.915509999999999
C      -3.917280000000000      0.941390000000000      9.252330000000001
C      -2.576010000000000      1.057180000000000      8.917570000000000
C      -2.411060000000000      2.323420000000000      8.406840000000001
N      -3.585910000000000      2.968010000000000      8.422660000000000
C      -1.144800000000000      2.958190000000000      7.860690000000000
N      -1.310210000000000      4.422180000000000      7.706600000000000
C      -0.373290000000000      5.168840000000000      6.843350000000000
H      -4.402930000000000      0.081660000000000      9.689990000000000
H      -5.564210000000000      2.394840000000000      9.042170000000000
H      -1.805210000000000      0.309400000000000      9.041729999999999
H      -0.307790000000000      2.773920000000000      8.563829999999999
H      -0.937780000000000      2.468050000000000      6.889380000000000
C      -0.625320000000000      4.860240000000000      5.356990000000000
C      -0.593580000000000      6.678720000000000      7.069180000000000
C       1.081060000000000      4.826370000000000      7.223230000000000
H      -1.657230000000000      5.153670000000000      5.066810000000000
H       0.091050000000000      5.426080000000000      4.721750000000000
H      -0.487490000000000      3.784900000000000      5.137330000000000
H      -0.412250000000000      6.960750000000000      8.127459999999999
H       0.098590000000000      7.277330000000000      6.436340000000000
H      -1.633120000000000      6.967330000000000      6.808520000000000
H       1.255290000000000      5.037390000000000      8.301010000000000
H       1.297110000000000      3.753940000000000      7.037480000000000
H       1.799180000000000      5.427770000000000      6.627130000000000

-C 0
6-31g(d,p)
****
-H 0
6-31g(d,p)
****
-Mg 0
6-31g(d,p)
****
-N 0
6-31+g(d,p)
****
-Na 0
6-31g(d,p)
****
-O 0
6-31+g(d,p)
****


