%chk=lowest10_c1_a1_speciation0_speciationDFT1_rank01_E97.16.chk
%nprocshared=20
%mem=40GB
#p opt=loose PM7/gen scf=xqc 

lowest10_c1_a1_speciation0_speciationDFT1_rank01_E97.16 DFT input

0 1
Na      1.701940000000000     -0.764720000000000     -0.912890000000000
C      -1.195850000000000      1.024700000000000     -0.519090000000000
C      -0.615130000000000      0.023510000000000      1.488180000000000
O      -0.257090000000000      0.204160000000000      0.137390000000000
C      -0.755600000000000      1.187050000000000     -1.969290000000000
C       0.430270000000000     -0.871280000000000      2.143210000000000
H      -2.205440000000000      0.554670000000000     -0.515600000000000
H      -1.232950000000000      2.036570000000000     -0.055250000000000
H      -0.626180000000000      0.996010000000000      2.030500000000000
H      -1.602980000000000     -0.481110000000000      1.573520000000000
H       1.432210000000000     -0.394590000000000      2.078410000000000
H       0.181020000000000     -1.037590000000000      3.212050000000000
H       0.468090000000000     -1.854290000000000      1.626060000000000
H      -0.708320000000000      0.193980000000000     -2.465870000000000
H      -1.472760000000000      1.830240000000000     -2.520940000000000
H       0.251550000000000      1.655080000000000     -2.011280000000000
Mg     -3.514420000000000     -5.624080000000000      5.032070000000000
H      -4.938720000000000     -4.315250000000000      2.745530000000000
C      -2.928550000000000     -4.487630000000000      1.886680000000000
C      -3.874340000000000     -4.197170000000000      3.034350000000000
C      -3.160900000000000     -3.470610000000000      0.776770000000000
H      -1.880580000000000     -4.425170000000000      2.253290000000000
H      -3.114040000000000     -5.519950000000000      1.516190000000000
H      -4.215620000000000     -3.540670000000000      0.432230000000000
H      -2.980160000000000     -2.449620000000000      1.175490000000000
C      -2.232150000000000     -3.717380000000000     -0.401570000000000
H      -3.678470000000000     -3.207030000000000      3.496490000000000
H      -1.172370000000000     -3.634650000000000     -0.079350000000000
H      -2.411970000000000     -4.728470000000000     -0.825010000000000
H      -2.431670000000000     -2.956820000000000     -1.184360000000000
C      -6.041780000000000     -5.942920000000000      6.922600000000000
C      -6.286070000000000     -6.799980000000000      7.983860000000000
C      -5.160240000000000     -7.596520000000000      8.124430000000000
C      -4.284270000000000     -7.202720000000000      7.140730000000000
N      -4.823570000000000     -6.204150000000000      6.426040000000000
C      -2.898790000000000     -7.752720000000000      6.862580000000000
N      -2.368050000000000     -7.192710000000000      5.603490000000000
C      -1.048470000000000     -7.603380000000000      5.090420000000000
H      -7.179310000000000     -6.838850000000000      8.590960000000001
H      -6.712260000000000     -5.178730000000000      6.547260000000000
H      -4.997730000000000     -8.378520000000000      8.853370000000000
H      -2.972160000000000     -8.851880000000000      6.775430000000000
H      -2.251710000000000     -7.471480000000000      7.718340000000000
C      -1.086740000000000     -9.094730000000000      4.706660000000000
C      -0.722460000000000     -6.783600000000000      3.828530000000000
C       0.047690000000000     -7.351250000000000      6.140870000000000
H      -1.867520000000000     -9.271699999999999      3.934450000000000
H      -0.106720000000000     -9.423439999999999      4.301500000000000
H      -1.314550000000000     -9.731529999999999      5.584710000000000
H      -0.669080000000000     -5.699470000000000      4.064740000000000
H       0.259200000000000     -7.093450000000000      3.404430000000000
H      -1.497130000000000     -6.937350000000000      3.047300000000000
H       0.068960000000000     -6.277110000000000      6.425370000000000
H      -0.126980000000000     -7.958560000000000      7.052350000000000
H       1.044620000000000     -7.631490000000000      5.738090000000000

-C 0
6-31g(d,p)
****
-H 0
6-31g(d,p)
****
-Mg 0
6-31g(d,p)
****
-N 0
6-31+g(d,p)
****
-Na 0
6-31g(d,p)
****
-O 0
6-31+g(d,p)
****


