%chk=lowest10_c1_a1_speciation3_speciationDFT0_rank01_E134.74.chk
%nprocshared=20
%mem=40GB
#p opt=loose PM7/gen scf=xqc 

lowest10_c1_a1_speciation3_speciationDFT0_rank01_E134.74 DFT input

0 1
Na     -0.074120000000000      0.216610000000000      0.295950000000000
C      -0.131160000000000     -2.651250000000000      1.594430000000000
C      -0.423160000000000     -1.052480000000000      3.292140000000000
O       0.022780000000000     -1.299830000000000      1.976520000000000
C      -1.500880000000000     -2.896550000000000      0.968840000000000
C       0.731170000000000     -1.205710000000000      4.272770000000000
H       0.638980000000000     -2.868090000000000      0.825520000000000
H       0.060070000000000     -3.357340000000000      2.431560000000000
H      -0.785220000000000     -0.002190000000000      3.335030000000000
H      -1.287630000000000     -1.689170000000000      3.584880000000000
H       1.561150000000000     -0.522550000000000      3.992260000000000
H       0.386740000000000     -0.955770000000000      5.297280000000000
H       1.105610000000000     -2.248830000000000      4.261630000000000
H      -1.657860000000000     -2.217230000000000      0.105500000000000
H      -1.557090000000000     -3.945540000000000      0.609710000000000
H      -2.307480000000000     -2.730890000000000      1.711580000000000
C       0.204220000000000      3.127120000000000     -1.023120000000000
C       1.412800000000000      3.019840000000000      0.979050000000000
O       0.398550000000000      2.438190000000000      0.192870000000000
C       1.161890000000000      2.634440000000000     -2.106180000000000
C       1.657780000000000      2.118940000000000      2.185090000000000
H      -0.828460000000000      2.899990000000000     -1.362910000000000
H       0.255840000000000      4.231380000000000     -0.900330000000000
H       2.369700000000000      3.099640000000000      0.420020000000000
H       1.092130000000000      4.018590000000000      1.345910000000000
H       1.979540000000000      1.108220000000000      1.853440000000000
H       2.449930000000000      2.550660000000000      2.831480000000000
H       0.725020000000000      2.015900000000000      2.779170000000000
H       1.075580000000000      1.534560000000000     -2.223460000000000
H       0.904720000000000      3.115630000000000     -3.072900000000000
H       2.210710000000000      2.890500000000000     -1.855620000000000
C      -3.063220000000000      1.059740000000000     -0.322120000000000
C      -2.419920000000000     -0.288060000000000     -2.135100000000000
O      -2.007530000000000      0.362530000000000     -0.952050000000000
C      -3.759270000000000      0.173250000000000      0.704730000000000
C      -2.206380000000000      0.616970000000000     -3.342120000000000
H      -2.621480000000000      1.927630000000000      0.212660000000000
H      -3.795260000000000      1.481380000000000     -1.046870000000000
H      -1.787830000000000     -1.191880000000000     -2.259030000000000
H      -3.470540000000000     -0.652430000000000     -2.086550000000000
H      -1.142870000000000      0.930840000000000     -3.401160000000000
H      -2.469430000000000      0.066860000000000     -4.269360000000000
H      -2.845250000000000      1.520510000000000     -3.265090000000000
H      -3.026400000000000     -0.188300000000000      1.457160000000000
H      -4.546190000000000      0.758250000000000      1.225560000000000
H      -4.231640000000000     -0.699310000000000      0.208350000000000
C       1.372350000000000     -1.481700000000000     -2.346640000000000
C       2.711010000000000     -1.157980000000000     -0.444290000000000
O       1.441450000000000     -0.961820000000000     -1.035070000000000
C       0.892460000000000     -2.928720000000000     -2.329990000000000
C       3.629840000000000      0.024430000000000     -0.727900000000000
H       0.631640000000000     -0.875260000000000     -2.908510000000000
H       2.332260000000000     -1.385530000000000     -2.901120000000000
H       2.564680000000000     -1.224830000000000      0.654980000000000
H       3.187340000000000     -2.115450000000000     -0.751940000000000
H       3.164760000000000      0.962110000000000     -0.364650000000000
H       4.595760000000000     -0.121300000000000     -0.200690000000000
H       3.824020000000000      0.117000000000000     -1.815740000000000
H      -0.089510000000000     -3.001910000000000     -1.817390000000000
H       0.779280000000000     -3.292420000000000     -3.372550000000000
H       1.623570000000000     -3.574770000000000     -1.802420000000000
Mg     -0.975610000000000     -8.275259999999999      7.540570000000000
H      -0.170700000000000    -11.159540000000000      8.316070000000000
C      -1.531480000000000    -11.612570000000000      6.653240000000000
C      -1.105140000000000    -10.784920000000000      7.852690000000000
C      -0.464600000000000    -11.677519999999999      5.550680000000000
H      -1.740630000000000    -12.641999999999999      7.010730000000000
H      -2.469560000000000    -11.191319999999999      6.232930000000000
H       0.476980000000000    -12.112060000000000      5.951590000000000
H      -0.852720000000000    -12.353320000000000      4.760270000000000
C      -0.162010000000000    -10.324579999999999      4.901460000000000
H      -1.921160000000000    -10.741750000000000      8.606790000000000
H       0.342530000000000     -9.643090000000001      5.615650000000000
H       0.516550000000000    -10.482659999999999      4.034910000000000
H      -1.094150000000000     -9.847730000000000      4.530060000000000
C       1.961940000000000     -7.229900000000000      6.933390000000000
C       2.418740000000000     -6.064430000000000      6.335540000000000
C       1.295980000000000     -5.334980000000000      5.978300000000000
C       0.207830000000000     -6.085920000000000      6.352340000000000
N       0.625330000000000     -7.223370000000000      6.940520000000000
C      -1.258270000000000     -5.751430000000000      6.185540000000000
N      -2.083850000000000     -6.940700000000000      6.479280000000000
C      -3.548940000000000     -6.901550000000000      6.325470000000000
H       3.447970000000000     -5.776160000000000      6.182310000000000
H       2.579100000000000     -8.024470000000001      7.339850000000000
H       1.273210000000000     -4.369350000000000      5.489820000000000
H      -1.496250000000000     -4.920070000000000      6.881980000000000
H      -1.426120000000000     -5.435000000000000      5.138850000000000
C      -3.905850000000000     -6.705130000000000      4.838680000000000
C      -4.133490000000000     -8.247730000000001      6.790930000000000
C      -4.161930000000000     -5.772630000000000      7.173160000000000
H      -3.471610000000000     -7.528240000000000      4.229220000000000
H      -5.006770000000000     -6.701720000000000      4.693250000000000
H      -3.516270000000000     -5.742300000000000      4.451600000000000
H      -3.910620000000000     -8.426729999999999      7.864510000000000
H      -5.238670000000000     -8.261100000000001      6.658810000000000
H      -3.707160000000000     -9.085889999999999      6.200410000000000
H      -3.905310000000000     -5.911460000000000      8.245220000000000
H      -3.791650000000000     -4.780580000000000      6.842460000000000
H      -5.268740000000000     -5.768100000000000      7.071520000000000

-C 0
6-31g(d,p)
****
-H 0
6-31g(d,p)
****
-Mg 0
6-31g(d,p)
****
-N 0
6-31+g(d,p)
****
-Na 0
6-31g(d,p)
****
-O 0
6-31+g(d,p)
****


