%chk=lowest10_c1_a1_speciation0_speciationDFT2_rank08_E98.73.chk
%nprocshared=20
%mem=40GB
#p opt=loose PM7/gen scf=xqc 

lowest10_c1_a1_speciation0_speciationDFT2_rank08_E98.73 DFT input

0 1
Na      0.123620000000000      1.974910000000000      0.912210000000000
C      -0.353930000000000     -0.425900000000000     -1.487680000000000
C       0.225170000000000     -1.430520000000000      0.517900000000000
O      -0.022680000000000     -0.207020000000000     -0.135980000000000
C      -0.607070000000000      0.926320000000000     -2.143350000000000
C       0.581170000000000     -1.130800000000000      1.969370000000000
H       0.487470000000000     -0.914540000000000     -2.025570000000000
H      -1.283310000000000     -1.032980000000000     -1.576880000000000
H      -0.682770000000000     -2.075230000000000      0.511390000000000
H       1.086390000000000     -1.963320000000000      0.054120000000000
H      -0.258440000000000     -0.596870000000000      2.464460000000000
H       0.781580000000000     -2.073190000000000      2.520640000000000
H       1.487250000000000     -0.488840000000000      2.014340000000000
H       0.304730000000000      1.558180000000000     -2.076250000000000
H      -0.872720000000000      0.792800000000000     -3.212980000000000
H      -1.441630000000000      1.448790000000000     -1.628170000000000
Mg     -0.816720000000000     -6.957860000000000     -4.036560000000000
H      -0.923700000000000     -9.570090000000000     -5.535890000000000
C      -2.365800000000000     -8.361549999999999     -6.682810000000000
C      -1.751630000000000     -8.849340000000000     -5.378410000000000
C      -1.398620000000000     -7.541100000000000     -7.553720000000000
H      -2.739050000000000     -9.241890000000000     -7.244760000000000
H      -3.228630000000000     -7.706230000000000     -6.434230000000000
H      -1.941590000000000     -7.254870000000000     -8.480840000000001
H      -1.103920000000000     -6.607760000000000     -7.028330000000000
C      -0.133390000000000     -8.300640000000000     -7.947630000000000
H      -2.516000000000000     -9.282690000000001     -4.701510000000000
H       0.487780000000000     -8.514820000000000     -7.053070000000000
H      -0.394810000000000     -9.250900000000000     -8.457509999999999
H       0.471720000000000     -7.676320000000000     -8.639150000000001
C      -1.084530000000000     -4.116670000000000     -5.433480000000000
C      -0.427040000000000     -2.919280000000000     -5.200440000000000
C       0.473020000000000     -3.149400000000000     -4.171970000000000
C       0.337670000000000     -4.473880000000000     -3.830140000000000
N      -0.606920000000000     -5.045440000000000     -4.591890000000000
C       1.085360000000000     -5.233970000000000     -2.752940000000000
N       0.836450000000000     -6.683310000000000     -2.891070000000000
C       1.483610000000000     -7.647450000000000     -1.982440000000000
H      -0.586920000000000     -1.983000000000000     -5.716020000000000
H      -1.862760000000000     -4.288520000000000     -6.167660000000000
H       1.156170000000000     -2.439140000000000     -3.728910000000000
H       0.723860000000000     -4.861800000000000     -1.771770000000000
H       2.165870000000000     -5.033570000000000     -2.868190000000000
C       1.171620000000000     -7.318650000000000     -0.510990000000000
C       0.957840000000000     -9.060219999999999     -2.298750000000000
C       3.006110000000000     -7.629070000000000     -2.219060000000000
H       0.074430000000000     -7.325960000000000     -0.336440000000000
H       1.642260000000000     -8.067810000000000      0.162010000000000
H       1.571830000000000     -6.322620000000000     -0.231140000000000
H       1.156820000000000     -9.328300000000000     -3.358760000000000
H       1.457170000000000     -9.816129999999999     -1.651500000000000
H      -0.137230000000000     -9.123680000000000     -2.122290000000000
H       3.231170000000000     -7.880370000000000     -3.279000000000000
H       3.437130000000000     -6.631830000000000     -1.999000000000000
H       3.518030000000000     -8.364950000000000     -1.564070000000000

-C 0
6-31g(d,p)
****
-H 0
6-31g(d,p)
****
-Mg 0
6-31g(d,p)
****
-N 0
6-31+g(d,p)
****
-Na 0
6-31g(d,p)
****
-O 0
6-31+g(d,p)
****


