%chk=lowest10_c1_a1_speciation3_speciationDFT0_rank08_E135.45.chk
%nprocshared=20
%mem=40GB
#p opt=loose PM7/gen scf=xqc 

lowest10_c1_a1_speciation3_speciationDFT0_rank08_E135.45 DFT input

0 1
Na      0.150450000000000     -0.048470000000000     -0.360060000000000
C       2.500280000000000      1.432880000000000      1.113240000000000
C       3.206950000000000      0.886810000000000     -1.061250000000000
O       2.285110000000000      0.624910000000000     -0.025600000000000
C       1.724600000000000      2.743410000000000      1.018150000000000
C       4.413280000000000     -0.033920000000000     -0.934680000000000
H       2.119100000000000      0.874150000000000      1.992870000000000
H       3.578620000000000      1.618270000000000      1.308490000000000
H       2.700020000000000      0.672480000000000     -2.027260000000000
H       3.517520000000000      1.954320000000000     -1.106420000000000
H       4.084010000000000     -1.095020000000000     -0.945080000000000
H       5.104500000000000      0.138170000000000     -1.785200000000000
H       4.951880000000000      0.167310000000000      0.013910000000000
H       0.643160000000000      2.542540000000000      0.871840000000000
H       1.854500000000000      3.314960000000000      1.961080000000000
H       2.096070000000000      3.359850000000000      0.174540000000000
C      -2.178210000000000     -1.741640000000000     -1.763250000000000
C      -0.095950000000000     -2.736290000000000     -2.160470000000000
O      -0.778100000000000     -1.566940000000000     -1.770300000000000
C      -2.664400000000000     -2.326340000000000     -0.438560000000000
C       1.400010000000000     -2.497710000000000     -1.982320000000000
H      -2.630970000000000     -0.732920000000000     -1.868100000000000
H      -2.537790000000000     -2.336100000000000     -2.631740000000000
H      -0.375250000000000     -3.604690000000000     -1.526170000000000
H      -0.291280000000000     -2.958100000000000     -3.231670000000000
H       1.631360000000000     -2.271010000000000     -0.919220000000000
H       1.971330000000000     -3.399170000000000     -2.286680000000000
H       1.725410000000000     -1.638160000000000     -2.605940000000000
H      -2.310380000000000     -1.703950000000000      0.408930000000000
H      -3.774300000000000     -2.342110000000000     -0.427490000000000
H      -2.298020000000000     -3.363600000000000     -0.303710000000000
C      -1.492650000000000      2.117700000000000     -1.979870000000000
C      -2.318150000000000      2.234280000000000      0.216550000000000
O      -1.472230000000000      1.552380000000000     -0.684730000000000
C      -0.394660000000000      3.165010000000000     -2.130510000000000
C      -3.702610000000000      1.597900000000000      0.233210000000000
H      -1.293470000000000      1.301120000000000     -2.706460000000000
H      -2.486350000000000      2.539300000000000     -2.251040000000000
H      -1.876440000000000      2.137210000000000      1.230070000000000
H      -2.379800000000000      3.326530000000000      0.011830000000000
H      -3.625120000000000      0.519620000000000      0.487040000000000
H      -4.332650000000000      2.100690000000000      0.996040000000000
H      -4.186980000000000      1.700770000000000     -0.759360000000000
H       0.597510000000000      2.712650000000000     -1.918480000000000
H      -0.394360000000000      3.553430000000000     -3.170670000000000
H      -0.565590000000000      4.010660000000000     -1.433020000000000
C      -1.038440000000000     -0.450840000000000      2.856920000000000
C       0.803700000000000     -1.772600000000000      2.242800000000000
O      -0.110440000000000     -0.771320000000000      1.841500000000000
C      -0.517350000000000      0.687720000000000      3.727030000000000
C       0.276410000000000     -3.160210000000000      1.897050000000000
H      -1.971950000000000     -0.111200000000000      2.361630000000000
H      -1.321630000000000     -1.330400000000000      3.476650000000000
H       1.747290000000000     -1.612640000000000      1.678490000000000
H       1.072340000000000     -1.705380000000000      3.320470000000000
H       0.067090000000000     -3.227200000000000      0.811170000000000
H       1.039940000000000     -3.921560000000000      2.159090000000000
H      -0.655550000000000     -3.376800000000000      2.457670000000000
H      -0.286200000000000      1.575260000000000      3.101480000000000
H      -1.291590000000000      0.967740000000000      4.471470000000000
H       0.401330000000000      0.376930000000000      4.265180000000000
Mg      2.634740000000000     -7.642720000000000      6.085780000000000
H       4.970330000000000     -7.337550000000000      4.102360000000000
C       5.165290000000000     -9.481690000000000      4.540040000000000
C       4.845800000000000     -8.052470000000000      4.939820000000000
C       4.314730000000000     -9.989950000000000      3.366710000000000
H       6.235370000000000     -9.518820000000000      4.249120000000000
H       5.018280000000000    -10.148239999999999      5.416580000000000
H       4.462880000000000     -9.342879999999999      2.474800000000000
H       4.675750000000000    -11.010590000000001      3.122000000000000
C       2.819100000000000    -10.086530000000000      3.679430000000000
H       5.463650000000000     -7.742600000000000      5.810990000000000
H       2.371760000000000     -9.080220000000001      3.807030000000000
H       2.304260000000000    -10.589330000000000      2.831680000000000
H       2.645100000000000    -10.688459999999999      4.596800000000000
C       0.352470000000000     -6.631220000000000      4.118040000000000
C      -1.028740000000000     -6.660020000000000      4.225960000000000
C      -1.325540000000000     -7.272840000000000      5.433830000000000
C      -0.117510000000000     -7.606420000000000      6.001840000000000
N       0.885250000000000     -7.204900000000000      5.207810000000000
C       0.124630000000000     -8.301080000000001      7.327540000000000
N       1.542390000000000     -8.703820000000000      7.431710000000000
C       2.027550000000000     -9.462809999999999      8.598940000000001
H      -1.740800000000000     -6.274260000000000      3.509680000000000
H       0.923790000000000     -6.213270000000000      3.298840000000000
H      -2.306630000000000     -7.464190000000000      5.846700000000000
H      -0.146100000000000     -7.589860000000000      8.135170000000000
H      -0.518170000000000     -9.199009999999999      7.373370000000000
C       1.366380000000000    -10.855100000000000      8.618840000000001
C       3.550370000000000     -9.650790000000001      8.471470000000000
C       1.726200000000000     -8.712330000000000      9.908350000000000
H       1.595640000000000    -11.401149999999999      7.677170000000000
H       1.737280000000000    -11.457100000000001      9.475130000000000
H       0.265070000000000    -10.779880000000000      8.718360000000001
H       4.071990000000000     -8.669950000000000      8.466559999999999
H       3.943250000000000    -10.248799999999999      9.324310000000001
H       3.802390000000000    -10.186380000000000      7.532100000000000
H       2.200280000000000     -7.707610000000000      9.896080000000000
H       0.633340000000000     -8.590210000000001     10.054670000000000
H       2.119470000000000     -9.279059999999999     10.779940000000000

-C 0
6-31g(d,p)
****
-H 0
6-31g(d,p)
****
-Mg 0
6-31g(d,p)
****
-N 0
6-31+g(d,p)
****
-Na 0
6-31g(d,p)
****
-O 0
6-31+g(d,p)
****


