%chk=lowest10_c1_a1_speciation0_speciationDFT2_rank09_E98.75.chk
%nprocshared=20
%mem=40GB
#p opt=loose PM7/gen scf=xqc 

lowest10_c1_a1_speciation0_speciationDFT2_rank09_E98.75 DFT input

0 1
Na      0.000180000000000     -0.973870000000000      1.825800000000000
C      -1.158230000000000      0.639120000000000     -0.969120000000000
C       1.158870000000000      0.639700000000000     -0.968900000000000
O       0.000410000000000      0.236080000000000     -0.275690000000000
C      -2.374400000000000      0.177650000000000     -0.174570000000000
C       2.375350000000000      0.176180000000000     -0.176300000000000
H      -1.204070000000000      1.748470000000000     -1.055790000000000
H      -1.204090000000000      0.165350000000000     -1.975950000000000
H       1.203290000000000      0.168380000000000     -1.975770000000000
H       1.205010000000000      1.749000000000000     -1.054720000000000
H       2.362040000000000     -0.929920000000000     -0.070200000000000
H       3.310550000000000      0.475400000000000     -0.694060000000000
H       2.364330000000000      0.632060000000000      0.837290000000000
H      -2.362270000000000      0.633590000000000      0.838880000000000
H      -3.309920000000000      0.477730000000000     -0.691340000000000
H      -2.362030000000000     -0.928490000000000     -0.068070000000000
Mg      1.001250000000000     -3.938460000000000     -5.910930000000000
H       3.799400000000000     -2.838970000000000     -5.707280000000000
C       2.889560000000000     -2.033930000000000     -3.868430000000000
C       2.861710000000000     -2.364170000000000     -5.353850000000000
C       2.973520000000000     -3.272290000000000     -2.959750000000000
H       3.745170000000000     -1.354970000000000     -3.675870000000000
H       1.947820000000000     -1.500730000000000     -3.618140000000000
H       3.006790000000000     -2.915300000000000     -1.907250000000000
H       2.064980000000000     -3.900140000000000     -3.079220000000000
C       4.203940000000000     -4.139750000000000     -3.217960000000000
H       2.626220000000000     -1.471350000000000     -5.968430000000000
H       4.153890000000000     -4.597560000000000     -4.227930000000000
H       5.130220000000000     -3.535600000000000     -3.127070000000000
H       4.237630000000000     -4.963840000000000     -2.473750000000000
C      -0.709870000000000     -4.868060000000000     -3.400520000000000
C      -1.570080000000000     -5.940890000000000     -3.228790000000000
C      -1.580640000000000     -6.642860000000000     -4.424160000000000
C      -0.718460000000000     -5.981370000000000     -5.266630000000000
N      -0.205300000000000     -4.910600000000000     -4.642530000000000
C      -0.372400000000000     -6.331450000000000     -6.700290000000000
N       0.781710000000000     -5.528690000000000     -7.153090000000000
C       1.339450000000000     -5.710180000000000     -8.505890000000001
H      -2.131730000000000     -6.182450000000000     -2.337600000000000
H      -0.477870000000000     -4.107840000000000     -2.663920000000000
H      -2.143440000000000     -7.537520000000000     -4.653350000000000
H      -1.268540000000000     -6.120140000000000     -7.319730000000000
H      -0.114580000000000     -7.404970000000000     -6.746570000000000
C       0.257480000000000     -5.512970000000000     -9.583460000000001
C       2.456530000000000     -4.673210000000000     -8.727180000000001
C       1.951860000000000     -7.119480000000000     -8.620609999999999
H      -0.190830000000000     -4.499700000000000     -9.501830000000000
H       0.696070000000000     -5.625390000000000    -10.598680000000000
H      -0.547600000000000     -6.269550000000000     -9.483750000000001
H       3.252450000000000     -4.779160000000000     -7.958850000000000
H       2.922660000000000     -4.809980000000000     -9.728999999999999
H       2.053340000000000     -3.639410000000000     -8.671920000000000
H       2.742960000000000     -7.256170000000000     -7.850730000000000
H       1.184890000000000     -7.906360000000000     -8.474640000000001
H       2.402320000000000     -7.275600000000000     -9.623250000000001

-C 0
6-31g(d,p)
****
-H 0
6-31g(d,p)
****
-Mg 0
6-31g(d,p)
****
-N 0
6-31+g(d,p)
****
-Na 0
6-31g(d,p)
****
-O 0
6-31+g(d,p)
****


