%chk=lowest10_c1_a1_speciation0_speciationDFT2_rank10_E98.78.chk
%nprocshared=20
%mem=40GB
#p opt=loose PM7/gen scf=xqc 

lowest10_c1_a1_speciation0_speciationDFT2_rank10_E98.78 DFT input

0 1
Na     -1.825190000000000     -0.975180000000000     -0.001020000000000
C       0.679410000000000      1.139730000000000     -1.004100000000000
C       1.258770000000000      0.136700000000000      1.002760000000000
O       0.275650000000000      0.235270000000000     -0.001890000000000
C      -0.420010000000000      1.205740000000000     -2.057510000000000
C       0.767760000000000     -0.850570000000000      2.055080000000000
H       0.816790000000000      2.162470000000000     -0.585070000000000
H       1.612940000000000      0.791270000000000     -1.501310000000000
H       2.215680000000000     -0.251360000000000      0.585810000000000
H       1.418640000000000      1.119930000000000      1.500830000000000
H       0.596860000000000     -1.846310000000000      1.592090000000000
H       1.518670000000000     -0.955970000000000      2.865860000000000
H      -0.187970000000000     -0.493260000000000      2.495570000000000
H      -1.369230000000000      1.553250000000000     -1.595780000000000
H      -0.136650000000000      1.909330000000000     -2.868070000000000
H      -0.586220000000000      0.199190000000000     -2.496810000000000
Mg      2.301120000000000     -2.070210000000000     -6.071750000000000
H       0.093650000000000     -0.670640000000000     -7.569300000000000
C       1.861380000000000     -0.026050000000000     -8.716329999999999
C       1.131730000000000     -0.313820000000000     -7.411890000000000
C       2.088350000000000     -1.273910000000000     -9.587280000000000
H       1.285690000000000      0.737330000000000     -9.278370000000001
H       2.860350000000000      0.393470000000000     -8.467760000000000
H       2.607750000000000     -0.946810000000000    -10.514390000000001
H       2.749290000000000     -1.995820000000000     -9.061950000000000
C       0.798010000000000     -1.989900000000000     -9.981270000000000
H       1.138700000000000      0.564670000000000     -6.734770000000000
H       0.301930000000000     -2.420790000000000     -9.086729999999999
H       0.105780000000000     -1.288410000000000    -10.491199999999999
H       1.036210000000000     -2.826090000000000    -10.672810000000000
C       4.895350000000000     -3.258800000000000     -7.468630000000000
C       5.604940000000000     -4.425790000000000     -7.234290000000000
C       4.957800000000000     -5.089340000000000     -6.203440000000000
C       3.876320000000000     -4.311060000000000     -5.863650000000000
N       3.852420000000000     -3.208180000000000     -6.626820000000000
C       2.843840000000000     -4.578110000000000     -4.786440000000000
N       1.713220000000000     -3.637860000000000     -4.924430000000000
C       0.554780000000000     -3.715810000000000     -4.015580000000000
H       6.496140000000000     -4.754540000000000     -7.749790000000000
H       5.135090000000000     -2.499230000000000     -8.203360000000000
H       5.235470000000000     -6.034380000000000     -5.756880000000000
H       3.346350000000000     -4.450890000000000     -3.805290000000000
H       2.477000000000000     -5.614040000000000     -4.901880000000000
C       0.995230000000000     -3.608430000000000     -2.543900000000000
C      -0.405300000000000     -2.554380000000000     -4.332770000000000
C      -0.190430000000000     -5.043780000000000     -4.251820000000000
H       1.536780000000000     -2.654050000000000     -2.369280000000000
H       0.111120000000000     -3.641400000000000     -1.870880000000000
H       1.657770000000000     -4.452900000000000     -2.263670000000000
H      -0.737950000000000     -2.593980000000000     -5.392360000000000
H      -1.308790000000000     -2.606570000000000     -3.684140000000000
H       0.089840000000000     -1.575450000000000     -4.159660000000000
H      -0.520350000000000     -5.113450000000000     -5.311870000000000
H       0.457760000000000     -5.915670000000000     -4.031770000000000
H      -1.083770000000000     -5.119300000000000     -3.597050000000000

-C 0
6-31g(d,p)
****
-H 0
6-31g(d,p)
****
-Mg 0
6-31g(d,p)
****
-N 0
6-31+g(d,p)
****
-Na 0
6-31g(d,p)
****
-O 0
6-31+g(d,p)
****


