%chk=lowest10_c1_a1_speciation3_speciationDFT1_rank10_E133.96.chk
%nprocshared=20
%mem=40GB
#p opt=loose PM7/gen scf=xqc 

lowest10_c1_a1_speciation3_speciationDFT1_rank10_E133.96 DFT input

0 1
Na      0.229990000000000     -0.311460000000000      0.030190000000000
C      -1.108680000000000     -0.962460000000000     -2.747210000000000
C       0.483250000000000     -2.624340000000000     -2.271240000000000
O       0.032220000000000     -1.316570000000000     -1.993040000000000
C      -2.393380000000000     -1.351980000000000     -2.022180000000000
C       1.530590000000000     -2.592030000000000     -3.375840000000000
H      -1.101520000000000      0.141360000000000     -2.860980000000000
H      -1.086910000000000     -1.379410000000000     -3.777490000000000
H       0.956550000000000     -3.022740000000000     -1.347510000000000
H      -0.343750000000000     -3.325870000000000     -2.521040000000000
H       2.370630000000000     -1.926730000000000     -3.082340000000000
H       1.922890000000000     -3.615340000000000     -3.548210000000000
H       1.082850000000000     -2.213750000000000     -4.317630000000000
H      -2.422040000000000     -0.889770000000000     -1.013810000000000
H      -3.266760000000000     -0.989640000000000     -2.603910000000000
H      -2.467380000000000     -2.453560000000000     -1.917960000000000
C       1.725640000000000      0.497630000000000      2.754500000000000
C       3.276920000000000     -0.206680000000000      1.149480000000000
O       1.924860000000000     -0.203000000000000      1.545970000000000
C       1.533310000000000      1.992990000000000      2.510170000000000
C       3.367010000000000     -0.838730000000000     -0.235490000000000
H       0.786970000000000      0.109450000000000      3.203630000000000
H       2.530110000000000      0.303170000000000      3.497670000000000
H       3.684910000000000      0.824120000000000      1.074760000000000
H       3.884140000000000     -0.815330000000000      1.853610000000000
H       2.767800000000000     -0.254340000000000     -0.966580000000000
H       4.422480000000000     -0.862270000000000     -0.577770000000000
H       2.974750000000000     -1.877420000000000     -0.206360000000000
H       0.712290000000000      2.160390000000000      1.782930000000000
H       1.268550000000000      2.492080000000000      3.465680000000000
H       2.462260000000000      2.454540000000000      2.119720000000000
C      -1.361500000000000     -1.893420000000000      2.267840000000000
C      -2.620100000000000      0.051840000000000      1.885300000000000
O      -1.426740000000000     -0.647840000000000      1.603370000000000
C      -1.925890000000000     -3.003130000000000      1.388360000000000
C      -2.420560000000000      0.983700000000000      3.073950000000000
H      -0.290590000000000     -2.115990000000000      2.462640000000000
H      -1.861710000000000     -1.879170000000000      3.262190000000000
H      -2.867160000000000      0.667130000000000      0.995240000000000
H      -3.491940000000000     -0.622010000000000      2.044500000000000
H      -1.577850000000000      1.679350000000000      2.876370000000000
H      -3.343690000000000      1.576860000000000      3.239680000000000
H      -2.197920000000000      0.398720000000000      3.989790000000000
H      -1.373830000000000     -3.045970000000000      0.425510000000000
H      -1.816940000000000     -3.978770000000000      1.906990000000000
H      -3.000360000000000     -2.823800000000000      1.182030000000000
C      -1.114150000000000      2.827260000000000     -0.549810000000000
C       0.756300000000000      2.229610000000000     -1.837400000000000
O      -0.165340000000000      1.823280000000000     -0.845030000000000
C      -2.346790000000000      2.682290000000000     -1.435050000000000
C       1.975900000000000      2.890280000000000     -1.206090000000000
H      -1.425870000000000      2.693260000000000      0.507070000000000
H      -0.692340000000000      3.854780000000000     -0.617980000000000
H       1.096640000000000      1.318880000000000     -2.374940000000000
H       0.299160000000000      2.890610000000000     -2.607210000000000
H       2.450900000000000      2.197590000000000     -0.483520000000000
H       2.713400000000000      3.140960000000000     -1.996920000000000
H       1.686450000000000      3.820330000000000     -0.676050000000000
H      -2.785290000000000      1.669040000000000     -1.319340000000000
H      -3.105440000000000      3.436310000000000     -1.138610000000000
H      -2.081130000000000      2.840700000000000     -2.500250000000000
Mg     -8.212410000000000     -5.837860000000000     -2.009950000000000
H      -5.679250000000000     -4.744450000000000     -0.714740000000000
C      -7.040970000000000     -4.727760000000000      0.998990000000000
C      -6.735550000000000     -4.509730000000000     -0.470350000000000
C      -6.193210000000000     -3.778740000000000      1.838750000000000
H      -8.121880000000001     -4.538470000000000      1.178200000000000
H      -6.817570000000000     -5.785110000000000      1.261970000000000
H      -5.118580000000000     -3.977200000000000      1.638880000000000
H      -6.426460000000000     -2.729230000000000      1.554340000000000
C      -6.463460000000000     -3.963390000000000      3.323850000000000
H      -7.009930000000000     -3.485600000000000     -0.799250000000000
H      -7.530950000000000     -3.754600000000000      3.548860000000000
H      -6.217540000000000     -5.001810000000000      3.631870000000000
H      -5.828490000000000     -3.256800000000000      3.897370000000000
C      -6.957590000000000     -6.388100000000000     -4.871320000000000
C      -7.348290000000000     -7.233070000000000     -5.897350000000000
C      -8.484000000000000     -7.898540000000000     -5.461440000000000
C      -8.729730000000000     -7.443480000000000     -4.185860000000000
N      -7.811120000000000     -6.528960000000000     -3.845020000000000
C      -9.856690000000000     -7.854850000000000     -3.256120000000000
N      -9.649740000000000     -7.266670000000000     -1.916090000000000
C     -10.590310000000001     -7.534900000000000     -0.813230000000000
H      -6.864720000000000     -7.349400000000000     -6.857430000000000
H      -6.109610000000000     -5.714550000000000     -4.881500000000000
H      -9.059419999999999     -8.634309999999999     -6.005980000000000
H      -9.858250000000000     -8.958030000000001     -3.178280000000000
H     -10.807029999999999     -7.496410000000000     -3.701360000000000
C     -10.542109999999999     -9.029690000000000     -0.444330000000000
C     -10.162000000000001     -6.715660000000000      0.418220000000000
C     -12.021400000000000     -7.127230000000000     -1.205500000000000
H      -9.509320000000001     -9.317950000000000     -0.148530000000000
H     -11.225619999999999     -9.249250000000000      0.403070000000000
H     -10.851179999999999     -9.665850000000001     -1.297870000000000
H     -10.194380000000001     -5.627190000000000      0.198770000000000
H     -10.841980000000000     -6.915340000000000      1.276710000000000
H      -9.129250000000001     -6.981800000000000      0.729570000000000
H     -12.054380000000000     -6.049920000000000     -1.476400000000000
H     -12.383430000000001     -7.723310000000000     -2.067920000000000
H     -12.721270000000001     -7.301650000000000     -0.360160000000000

-C 0
6-31g(d,p)
****
-H 0
6-31g(d,p)
****
-Mg 0
6-31g(d,p)
****
-N 0
6-31+g(d,p)
****
-Na 0
6-31g(d,p)
****
-O 0
6-31+g(d,p)
****


