%chk=lowest10_c1_a1_speciation3_speciationDFT2_rank02_E134.66.chk
%nprocshared=20
%mem=40GB
#p opt=loose PM7/gen scf=xqc 

lowest10_c1_a1_speciation3_speciationDFT2_rank02_E134.66 DFT input

0 1
Na      0.156410000000000     -0.286240000000000      0.203400000000000
C       2.509970000000000      0.255020000000000     -1.824090000000000
C       3.214710000000000     -1.353760000000000     -0.263070000000000
O       2.295590000000000     -0.323070000000000     -0.553040000000000
C       1.727880000000000     -0.483950000000000     -2.905560000000000
C       4.418690000000000     -0.786650000000000      0.476190000000000
H       2.133560000000000      1.298080000000000     -1.782020000000000
H       3.588130000000000      0.325700000000000     -2.085860000000000
H       2.704730000000000     -2.085250000000000      0.400880000000000
H       3.528840000000000     -1.923790000000000     -1.165840000000000
H       4.085530000000000     -0.267120000000000      1.400050000000000
H       5.108740000000000     -1.610070000000000      0.752840000000000
H       4.959020000000000     -0.064140000000000     -0.169250000000000
H       0.647590000000000     -0.505200000000000     -2.652940000000000
H       1.856000000000000      0.041920000000000     -3.874820000000000
H       2.095040000000000     -1.524760000000000     -3.013900000000000
C      -2.182050000000000     -0.650640000000000      2.378710000000000
C      -0.099070000000000     -0.499790000000000      3.434880000000000
O      -0.782360000000000     -0.746750000000000      2.227610000000000
C      -2.665220000000000      0.789200000000000      2.216950000000000
C       1.396430000000000     -0.462940000000000      3.138950000000000
H      -2.638610000000000     -1.249810000000000      1.562570000000000
H      -2.539880000000000     -1.099000000000000      3.331780000000000
H      -0.378780000000000      0.483460000000000      3.870340000000000
H      -0.293190000000000     -1.317040000000000      4.162530000000000
H       1.626290000000000      0.344630000000000      2.410920000000000
H       1.966680000000000     -0.274370000000000      4.072220000000000
H       1.723230000000000     -1.432610000000000      2.707030000000000
H      -2.313850000000000      1.205310000000000      1.250330000000000
H      -3.774970000000000      0.809870000000000      2.230250000000000
H      -2.293210000000000      1.428310000000000      3.042550000000000
C      -1.497160000000000     -2.769890000000000     -0.868040000000000
C      -2.323020000000000     -0.927380000000000     -2.066940000000000
O      -1.477130000000000     -1.365480000000000     -1.025020000000000
C      -0.395920000000000     -3.420630000000000     -1.697480000000000
C      -3.705660000000000     -0.591840000000000     -1.522370000000000
H      -1.302000000000000     -2.991980000000000      0.202880000000000
H      -2.489510000000000     -3.216870000000000     -1.101860000000000
H      -1.880240000000000     -0.003260000000000     -2.493360000000000
H      -2.388000000000000     -1.653400000000000     -2.908340000000000
H      -3.624380000000000      0.168770000000000     -0.717460000000000
H      -4.337190000000000     -0.184090000000000     -2.338710000000000
H      -4.189690000000000     -1.501480000000000     -1.111440000000000
H       0.594080000000000     -3.008180000000000     -1.408200000000000
H      -0.393650000000000     -4.515860000000000     -1.515610000000000
H      -0.564480000000000     -3.237550000000000     -2.778710000000000
C      -1.037800000000000      2.714980000000000     -1.058710000000000
C       0.803750000000000      2.840640000000000      0.391950000000000
O      -0.111790000000000      1.993040000000000     -0.273200000000000
C      -0.515640000000000      2.895680000000000     -2.479500000000000
C       0.276120000000000      3.236640000000000      1.765640000000000
H      -1.973940000000000      2.120140000000000     -1.103900000000000
H      -1.316590000000000      3.694020000000000     -0.608950000000000
H       1.747810000000000      2.272860000000000      0.534620000000000
H       1.072080000000000      3.738670000000000     -0.206070000000000
H       0.068190000000000      2.329180000000000      2.366760000000000
H       1.037180000000000      3.848150000000000      2.293820000000000
H      -0.657440000000000      3.827600000000000      1.671020000000000
H      -0.287590000000000      1.908170000000000     -2.932600000000000
H      -1.287860000000000      3.401920000000000     -3.095390000000000
H       0.405120000000000      3.514250000000000     -2.479630000000000
Mg      1.182560000000000     10.141400000000001     -2.185490000000000
H       2.337000000000000      8.337460000000000     -4.362050000000000
C       2.038170000000000     10.203419999999999     -5.483800000000000
C       1.587270000000000      9.144819999999999     -4.486790000000000
C       3.282900000000000     10.984159999999999     -5.029930000000000
H       2.226540000000000      9.712450000000000     -6.460900000000000
H       1.210400000000000     10.934690000000000     -5.609480000000000
H       3.530490000000000     11.717490000000000     -5.828200000000000
H       3.062180000000000     11.550000000000001     -4.100010000000000
C       4.506150000000000     10.101630000000000     -4.787630000000000
H       0.611140000000000      8.707070000000000     -4.780010000000000
H       4.334340000000000      9.421709999999999     -3.927380000000000
H       4.740680000000000      9.505310000000000     -5.693850000000000
H       5.379730000000000     10.742699999999999     -4.543440000000000
C       1.817590000000000     13.246980000000001     -2.006710000000000
C       2.055310000000000     14.078239999999999     -0.921960000000000
C       1.989920000000000     13.281710000000000      0.210620000000000
C       1.736150000000000     12.003200000000000     -0.225670000000000
N       1.621600000000000     12.000230000000000     -1.568710000000000
C       1.575710000000000     10.746880000000001      0.603230000000000
N       1.566400000000000      9.558109999999999     -0.274470000000000
C       1.443980000000000      8.201169999999999      0.287260000000000
H       2.247710000000000     15.140499999999999     -0.951350000000000
H       1.786940000000000     13.549480000000001     -3.048340000000000
H       2.123370000000000     13.597300000000001      1.238330000000000
H       0.623260000000000     10.835580000000000      1.167140000000000
H       2.430490000000000     10.678670000000000      1.303280000000000
C       0.170580000000000      8.067119999999999      1.141810000000000
C       1.372980000000000      7.190640000000000     -0.872600000000000
C       2.689620000000000      7.881570000000000      1.136570000000000
H      -0.729950000000000      8.297280000000001      0.533340000000000
H       0.075930000000000      7.032220000000000      1.537150000000000
H       0.199680000000000      8.754740000000000      2.011850000000000
H       2.275640000000000      7.263320000000000     -1.516780000000000
H       1.311170000000000      6.151860000000000     -0.480070000000000
H       0.477710000000000      7.375170000000000     -1.503890000000000
H       3.608470000000000      7.969280000000000      0.515940000000000
H       2.781810000000000      8.576470000000000      1.995610000000000
H       2.636890000000000      6.849550000000000      1.544090000000000

-C 0
6-31g(d,p)
****
-H 0
6-31g(d,p)
****
-Mg 0
6-31g(d,p)
****
-N 0
6-31+g(d,p)
****
-Na 0
6-31g(d,p)
****
-O 0
6-31+g(d,p)
****


