%chk=lowest10_c1_a1_speciation3_speciationDFT38_rank09_E135.67.chk
%nprocshared=20
%mem=40GB
#p opt=loose PM7/gen scf=xqc 

lowest10_c1_a1_speciation3_speciationDFT38_rank09_E135.67 DFT input

0 1
Na      0.040480000000000      0.319290000000000     -0.206610000000000
C      -0.658190000000000     -1.692470000000000     -2.515640000000000
C      -0.479420000000000      0.463780000000000     -3.436070000000000
O      -0.659920000000000     -0.302090000000000     -2.264870000000000
C       0.752510000000000     -2.269180000000000     -2.439440000000000
C      -1.829120000000000      0.812040000000000     -4.049400000000000
H      -1.265750000000000     -2.172800000000000     -1.720890000000000
H      -1.146610000000000     -1.953800000000000     -3.479000000000000
H       0.028590000000000      1.409130000000000     -3.145510000000000
H       0.186540000000000     -0.029140000000000     -4.178810000000000
H      -2.457980000000000      1.348780000000000     -3.307140000000000
H      -1.678770000000000      1.466440000000000     -4.931820000000000
H      -2.355530000000000     -0.110460000000000     -4.369180000000000
H       1.209840000000000     -2.043330000000000     -1.453770000000000
H       0.704200000000000     -3.371520000000000     -2.562650000000000
H       1.392860000000000     -1.849560000000000     -3.241630000000000
C       0.543890000000000      2.378710000000000      2.186500000000000
C      -1.073170000000000      3.221280000000000      0.716060000000000
O      -0.024290000000000      2.298370000000000      0.897480000000000
C      -0.225450000000000      1.526780000000000      3.194290000000000
C      -1.718690000000000      2.948340000000000     -0.639030000000000
H       1.570630000000000      1.961580000000000      2.113890000000000
H       0.658160000000000      3.427900000000000      2.536940000000000
H      -1.859530000000000      3.105830000000000      1.492380000000000
H      -0.677990000000000      4.259820000000000      0.714370000000000
H      -2.125130000000000      1.914520000000000     -0.672550000000000
H      -2.548210000000000      3.662850000000000     -0.820760000000000
H      -0.966040000000000      3.058150000000000     -1.448380000000000
H      -0.307310000000000      0.481620000000000      2.831160000000000
H       0.315510000000000      1.523470000000000      4.163670000000000
H      -1.242990000000000      1.932400000000000      3.362490000000000
C       3.184670000000000      0.642290000000000     -0.131150000000000
C       2.733060000000000     -1.318480000000000      1.083190000000000
O       2.189860000000000     -0.197040000000000      0.419700000000000
C       3.489450000000000      0.249000000000000     -1.572950000000000
C       2.943160000000000     -1.014820000000000      2.561930000000000
H       2.785700000000000      1.679280000000000     -0.133370000000000
H       4.113820000000000      0.668210000000000      0.480760000000000
H       1.998860000000000     -2.146340000000000      0.997720000000000
H       3.670070000000000     -1.689290000000000      0.611160000000000
H       1.987260000000000     -0.694180000000000      3.027400000000000
H       3.304150000000000     -1.927470000000000      3.080140000000000
H       3.693950000000000     -0.208170000000000      2.688070000000000
H       2.563910000000000      0.290650000000000     -2.185920000000000
H       4.231160000000000      0.956360000000000     -2.000130000000000
H       3.908580000000000     -0.777240000000000     -1.616040000000000
C      -1.055680000000000     -2.260420000000000      1.795930000000000
C      -2.702780000000000     -1.067450000000000      0.618780000000000
O      -1.321080000000000     -1.221510000000000      0.876570000000000
C      -0.840980000000000     -3.584840000000000      1.071060000000000
C      -3.330830000000000     -0.075160000000000      1.590720000000000
H      -0.118540000000000     -2.001220000000000      2.331330000000000
H      -1.840500000000000     -2.355270000000000      2.578600000000000
H      -2.809840000000000     -0.657000000000000     -0.408130000000000
H      -3.252970000000000     -2.034390000000000      0.624790000000000
H      -2.807960000000000      0.899670000000000      1.530190000000000
H      -4.398240000000000      0.077700000000000      1.326850000000000
H      -3.268210000000000     -0.452960000000000      2.631280000000000
H      -0.020980000000000     -3.489510000000000      0.328730000000000
H      -0.565580000000000     -4.368390000000000      1.807510000000000
H      -1.767410000000000     -3.896050000000000      0.546750000000000
Mg      3.123230000000000     -0.582100000000000     -8.802030000000000
C       3.368000000000000     -3.281180000000000     -6.924980000000000
C       1.215410000000000     -3.196450000000000     -7.967150000000000
O       2.398420000000000     -2.512250000000000     -7.615050000000000
C       3.705420000000000     -4.633620000000000     -7.557180000000000
C       0.378350000000000     -3.571290000000000     -6.753630000000000
H       4.302300000000000     -2.686850000000000     -6.954090000000000
H       3.098570000000000     -3.387900000000000     -5.854770000000000
H       0.614950000000000     -2.498260000000000     -8.581110000000001
H       1.410090000000000     -4.058320000000000     -8.635600000000000
H      -0.589530000000000     -3.990650000000000     -7.098220000000000
H       0.185010000000000     -2.673200000000000     -6.130820000000000
H       0.905050000000000     -4.333340000000000     -6.146780000000000
H       3.959140000000000     -4.513560000000000     -8.623510000000000
H       2.858170000000000     -5.340680000000000     -7.452390000000000
H       4.588000000000000     -5.068730000000000     -7.047160000000000
H       1.810970000000000      0.952380000000000     -7.057030000000000
C       0.889910000000000      1.487780000000000     -8.974290000000000
C       2.113500000000000      1.152270000000000     -8.104699999999999
C      -0.147720000000000      0.356600000000000     -9.117459999999999
H       0.393220000000000      2.383760000000000     -8.547480000000000
H       1.246290000000000      1.736500000000000     -9.996940000000000
H      -0.977460000000000      0.724360000000000     -9.762670000000000
H       0.311320000000000     -0.510730000000000     -9.633120000000000
C      -0.754560000000000     -0.094660000000000     -7.789050000000000
H       2.836500000000000      1.990220000000000     -8.124670000000000
H       0.026130000000000     -0.514480000000000     -7.126000000000000
H      -1.250190000000000      0.756560000000000     -7.279900000000000
H      -1.512520000000000     -0.887340000000000     -7.973820000000000
C       2.051790000000000     -3.378290000000000    -11.362010000000000
C       1.924960000000000     -2.035560000000000    -11.627789999999999
C       3.106990000000000     -1.421120000000000    -11.251020000000000
C       3.917480000000000     -2.361090000000000    -10.746440000000000
N       3.320470000000000     -3.630750000000000    -10.814520000000000
C       5.273910000000000     -2.110500000000000    -10.137280000000001
N       5.122880000000000     -1.205250000000000     -8.992970000000000
C       6.339320000000000     -0.689680000000000     -8.317610000000000
H       1.044480000000000     -1.555070000000000    -12.035850000000000
H       1.297200000000000     -4.132650000000000    -11.526840000000000
H       3.316580000000000     -0.361860000000000    -11.302860000000001
H       5.938530000000000     -1.681900000000000    -10.909950000000000
H       5.682510000000000     -3.083420000000000     -9.789600000000000
C       7.127210000000000      0.246270000000000     -9.254980000000000
C       5.913430000000000      0.103000000000000     -7.071190000000000
C       7.255040000000000     -1.853350000000000     -7.867240000000000
H       6.496620000000000      1.104660000000000     -9.566920000000000
H       8.033320000000000      0.638280000000000     -8.742459999999999
H       7.477030000000000     -0.286430000000000    -10.162120000000000
H       5.373260000000000     -0.549090000000000     -6.352850000000000
H       6.803250000000000      0.525220000000000     -6.551680000000000
H       5.245430000000000      0.942900000000000     -7.355140000000000
H       6.711440000000000     -2.543130000000000     -7.187100000000000
H       7.627430000000000     -2.437380000000000     -8.734439999999999
H       8.145920000000000     -1.467660000000000     -7.324100000000000

-C 0
6-31g(d,p)
****
-H 0
6-31g(d,p)
****
-Mg 0
6-31g(d,p)
****
-N 0
6-31+g(d,p)
****
-Na 0
6-31g(d,p)
****
-O 0
6-31+g(d,p)
****


