%chk=lowest10_c1_a1_speciation0_speciationDFT37b_rank01_E81.58.chk
%nprocshared=20
%mem=40GB
#p opt=loose PM7/gen scf=xqc 

lowest10_c1_a1_speciation0_speciationDFT37b_rank01_E81.58 DFT input

0 1
Na     -1.832100000000000     -0.985340000000000      0.003590000000000
C       0.680930000000000      1.134850000000000      1.006080000000000
C       1.259660000000000      0.133560000000000     -1.000430000000000
O       0.274440000000000      0.233880000000000      0.001890000000000
C      -0.419310000000000      1.204670000000000      2.057910000000000
C       0.766970000000000     -0.847530000000000     -2.056940000000000
H       1.612010000000000      0.781240000000000      1.504300000000000
H       0.823800000000000      2.157630000000000      0.588640000000000
H       1.425410000000000      1.117420000000000     -1.495530000000000
H       2.213500000000000     -0.260370000000000     -0.581880000000000
H      -0.186050000000000     -0.484780000000000     -2.498460000000000
H       1.520050000000000     -0.954270000000000     -2.865440000000000
H       0.589360000000000     -1.842670000000000     -1.597700000000000
H      -0.588960000000000      0.198450000000000      2.498060000000000
H      -0.133890000000000      1.908090000000000      2.867870000000000
H      -1.366240000000000      1.556300000000000      1.594370000000000
Mg     -0.538400000000000     -5.127590000000000      3.277340000000000
C       1.873180000000000     -5.215730000000000      1.187130000000000
C      -0.001120000000000     -6.461400000000000      0.397640000000000
O       0.818350000000000     -6.107800000000000      1.491710000000000
C       1.414810000000000     -3.872680000000000      0.619690000000000
C       0.717810000000000     -7.384740000000000     -0.572480000000000
H       2.368430000000000     -4.995290000000000      2.149990000000000
H       2.655330000000000     -5.694850000000000      0.565520000000000
H      -0.862840000000000     -7.022430000000000      0.821010000000000
H      -0.447990000000000     -5.583270000000000     -0.112180000000000
H       1.160300000000000     -8.236780000000000     -0.014630000000000
H      -0.006150000000000     -7.772020000000000     -1.318810000000000
H       1.516180000000000     -6.830550000000000     -1.105400000000000
H       0.576120000000000     -3.462620000000000      1.216540000000000
H       2.259950000000000     -3.153440000000000      0.650490000000000
H       1.096930000000000     -3.987750000000000     -0.434720000000000
H      -2.075250000000000     -3.125710000000000      2.654270000000000
C      -3.372600000000000     -4.876400000000000      2.740740000000000
C      -2.100160000000000     -4.177900000000000      2.306920000000000
C      -3.456410000000000     -4.944470000000000      4.269930000000000
H      -4.225880000000000     -4.307260000000000      2.321720000000000
H      -3.383020000000000     -5.913320000000000      2.336130000000000
H      -2.654070000000000     -5.606690000000000      4.657480000000000
H      -3.316860000000000     -3.935420000000000      4.711780000000000
C      -4.812350000000000     -5.478910000000000      4.713550000000000
H      -1.969700000000000     -4.221120000000000      1.207110000000000
H      -5.610610000000000     -4.786750000000000      4.369830000000000
H      -4.995720000000000     -6.489200000000000      4.290730000000000
H      -4.848680000000000     -5.538560000000000      5.821570000000000
C      -1.336710000000000     -7.538880000000000      6.149060000000000
C      -1.143530000000000     -7.961370000000000      4.855060000000000
C       0.035130000000000     -7.394140000000000      4.403310000000000
C       0.530560000000000     -6.630170000000000      5.387800000000000
N      -0.275040000000000     -6.702570000000000      6.535800000000000
C       1.778140000000000     -5.784940000000000      5.317300000000000
N       1.594290000000000     -4.620300000000000      4.435200000000000
C       1.326470000000000     -3.302370000000000      5.063650000000000
H      -1.811690000000000     -8.605190000000000      4.294700000000000
H      -2.175530000000000     -7.790790000000000      6.778970000000000
H       0.458270000000000     -7.533200000000000      3.423240000000000
H       2.611750000000000     -6.406220000000000      4.926400000000000
H       2.051250000000000     -5.480400000000000      6.340790000000000
C       2.519670000000000     -2.860660000000000      5.933430000000000
C       1.156980000000000     -2.270060000000000      3.930470000000000
C       0.029120000000000     -3.313660000000000      5.900100000000000
H       3.458120000000000     -2.900450000000000      5.340760000000000
H       2.371540000000000     -1.819900000000000      6.293700000000000
H       2.638280000000000     -3.492310000000000      6.834260000000000
H       0.277930000000000     -2.518370000000000      3.301180000000000
H       0.997240000000000     -1.246640000000000      4.336500000000000
H       2.056360000000000     -2.250270000000000      3.278090000000000
H      -0.854440000000000     -3.523540000000000      5.260670000000000
H       0.072590000000000     -4.074270000000000      6.702750000000000
H      -0.128290000000000     -2.325220000000000      6.385210000000000

-C 0
6-31g(d,p)
****
-H 0
6-31g(d,p)
****
-Mg 0
6-31g(d,p)
****
-N 0
6-31+g(d,p)
****
-Na 0
6-31g(d,p)
****
-O 0
6-31+g(d,p)
****


