%chk=lowest10_c1_a1_speciation0_speciationDFT96_rank05_E104.93.chk
%nprocshared=20
%mem=40GB
#p opt=loose PM7/gen scf=xqc 

lowest10_c1_a1_speciation0_speciationDFT96_rank05_E104.93 DFT input

0 1
Na     -1.710030000000000     -0.768290000000000     -0.917170000000000
C       0.614240000000000      0.025370000000000      1.488460000000000
C       1.195630000000000      1.025240000000000     -0.518120000000000
O       0.255970000000000      0.205160000000000      0.137670000000000
C      -0.429350000000000     -0.870230000000000      2.144440000000000
C       0.756850000000000      1.187600000000000     -1.968460000000000
H       1.601860000000000     -0.477580000000000      1.573490000000000
H       0.625670000000000      0.997860000000000      2.030460000000000
H       1.232320000000000      2.037120000000000     -0.054340000000000
H       2.205380000000000      0.555220000000000     -0.513560000000000
H      -0.250420000000000      1.655300000000000     -2.011000000000000
H       1.474590000000000      1.831120000000000     -2.518910000000000
H       0.710400000000000      0.194550000000000     -2.465100000000000
H      -0.467100000000000     -1.853160000000000      1.627140000000000
H      -0.178060000000000     -1.036430000000000      3.212820000000000
H      -1.431390000000000     -0.393780000000000      2.080610000000000
Mg      4.896640000000000     -5.126540000000000      3.407870000000000
C       3.724620000000000     -5.058130000000000      6.712460000000000
C       3.910770000000000     -2.900730000000000      5.710370000000000
O       3.854200000000000     -4.302290000000000      5.522330000000000
C       2.399640000000000     -4.838790000000000      7.436130000000000
C       5.136380000000000     -2.438040000000000      6.494080000000000
H       3.760390000000000     -6.126540000000000      6.408220000000000
H       4.581600000000000     -4.913420000000000      7.397500000000000
H       3.999870000000000     -2.452450000000000      4.700870000000000
H       2.964550000000000     -2.497210000000000      6.124200000000000
H       6.059390000000000     -2.860360000000000      6.045720000000000
H       5.194520000000000     -1.330280000000000      6.456830000000000
H       5.062970000000000     -2.741800000000000      7.556780000000000
H       1.546720000000000     -5.006260000000000      6.748210000000000
H       2.326380000000000     -5.558600000000000      8.278240000000000
H       2.346880000000000     -3.813940000000000      7.853240000000000
H       5.994010000000000     -7.331140000000000      5.073070000000000
C       7.322100000000000     -5.715990000000000      5.739110000000000
C       6.553310000000000     -6.461740000000000      4.670040000000000
C       8.375909999999999     -6.633050000000000      6.336160000000000
H       7.804770000000000     -4.822020000000000      5.293060000000000
H       6.619890000000000     -5.378410000000000      6.526030000000000
H       7.877360000000000     -7.525100000000000      6.774270000000000
H       9.069530000000000     -6.962150000000000      5.531970000000000
C       9.164320000000000     -5.914620000000000      7.419250000000000
H       7.198090000000000     -6.742610000000000      3.811660000000000
H       9.676640000000001     -5.025440000000000      6.993570000000000
H       8.484389999999999     -5.590540000000000      8.236020000000000
H       9.924110000000001     -6.608020000000000      7.832920000000000
C       1.852040000000000     -5.837430000000000     -0.370900000000000
C       2.853390000000000     -5.392130000000000     -1.195120000000000
C       3.532210000000000     -4.379120000000000     -0.527930000000000
C       2.969830000000000     -4.225480000000000      0.679360000000000
N       1.888450000000000     -5.108050000000000      0.824690000000000
C       3.327090000000000     -3.225270000000000      1.761410000000000
N       4.633270000000000     -3.401850000000000      2.417620000000000
C       5.917200000000000     -2.941430000000000      1.867020000000000
H       3.057210000000000     -5.773790000000000     -2.187500000000000
H       1.139150000000000     -6.620720000000000     -0.587500000000000
H       4.352730000000000     -3.820840000000000     -0.939200000000000
H       2.570970000000000     -3.364360000000000      2.565540000000000
H       3.197510000000000     -2.193920000000000      1.395570000000000
C       5.729330000000000     -1.711870000000000      0.974010000000000
C       6.809010000000000     -2.548160000000000      3.060700000000000
C       6.624570000000000     -4.091780000000000      1.122190000000000
H       5.221290000000000     -0.910180000000000      1.553650000000000
H       6.709620000000000     -1.333970000000000      0.620930000000000
H       5.111830000000000     -1.957910000000000      0.090740000000000
H       6.952830000000000     -3.413520000000000      3.738690000000000
H       7.811920000000000     -2.211670000000000      2.719560000000000
H       6.343580000000000     -1.732100000000000      3.653270000000000
H       6.844060000000000     -4.937380000000000      1.811530000000000
H       6.018270000000000     -4.497510000000000      0.300480000000000
H       7.589760000000000     -3.741690000000000      0.697900000000000
C       3.129420000000000     -7.597800000000000      2.547430000000000
C       1.775460000000000     -6.156730000000000      3.835970000000000
O       3.086110000000000     -6.607060000000000      3.555710000000000
C       4.381460000000000     -7.412320000000000      1.687100000000000
C       1.023460000000000     -7.155180000000000      4.691030000000000
H       3.184070000000000     -8.591880000000000      3.034920000000000
H       2.249690000000000     -7.574070000000000      1.868760000000000
H       1.852840000000000     -5.197450000000000      4.385390000000000
H       1.189570000000000     -5.917840000000000      2.933290000000000
H       1.592890000000000     -7.358830000000000      5.620710000000000
H       0.028980000000000     -6.734960000000000      4.946900000000000
H       0.884970000000000     -8.096390000000000      4.121590000000000
H       4.371280000000000     -6.434840000000000      1.171350000000000
H       5.300550000000000     -7.460860000000000      2.304900000000000
H       4.430440000000000     -8.208620000000000      0.916200000000000

-C 0
6-31g(d,p)
****
-H 0
6-31g(d,p)
****
-Mg 0
6-31g(d,p)
****
-N 0
6-31+g(d,p)
****
-Na 0
6-31g(d,p)
****
-O 0
6-31+g(d,p)
****


