%chk=lowest10_c1_a1_speciation3_speciationDFT96_rank05_E142.23.chk
%nprocshared=20
%mem=40GB
#p opt=loose PM7/gen scf=xqc 

lowest10_c1_a1_speciation3_speciationDFT96_rank05_E142.23 DFT input

0 1
Na     -0.257650000000000     -0.277940000000000      0.008480000000000
C       0.315200000000000      0.254750000000000      3.049900000000000
C      -1.390280000000000     -1.356010000000000      2.882790000000000
O      -0.675270000000000     -0.330060000000000      2.229060000000000
C       1.646700000000000     -0.481190000000000      2.926610000000000
C      -2.627760000000000     -0.784620000000000      3.562850000000000
H       0.467430000000000      1.294940000000000      2.695060000000000
H      -0.002400000000000      0.334100000000000      4.111830000000000
H      -1.719070000000000     -2.084180000000000      2.109540000000000
H      -0.764270000000000     -1.930630000000000      3.600830000000000
H      -3.265060000000000     -0.262170000000000      2.817570000000000
H      -3.212720000000000     -1.606910000000000      4.023950000000000
H      -2.333870000000000     -0.064700000000000      4.353800000000000
H       1.976480000000000     -0.510220000000000      1.867550000000000
H       2.417260000000000      0.052510000000000      3.522140000000000
H       1.558700000000000     -1.518930000000000      3.307300000000000
C      -0.969990000000000     -0.648750000000000     -3.085110000000000
C      -2.930930000000000     -0.494010000000000     -1.813230000000000
O      -1.543960000000000     -0.740780000000000     -1.799460000000000
C      -0.593540000000000      0.790620000000000     -3.431190000000000
C      -3.423040000000000     -0.460080000000000     -0.369600000000000
H      -0.031210000000000     -1.241780000000000     -3.063360000000000
H      -1.609670000000000     -1.107090000000000     -3.870860000000000
H      -3.167690000000000      0.489660000000000     -2.272260000000000
H      -3.463250000000000     -1.310410000000000     -2.346940000000000
H      -2.908890000000000      0.347120000000000      0.195380000000000
H      -4.516700000000000     -0.273820000000000     -0.340390000000000
H      -3.210310000000000     -1.429950000000000      0.128080000000000
H       0.060680000000000      1.217130000000000     -2.643130000000000
H      -0.043190000000000      0.806420000000000     -4.395150000000000
H      -1.497240000000000      1.423930000000000     -3.533500000000000
C       1.482010000000000     -2.763900000000000     -0.877120000000000
C       2.933740000000000     -0.919150000000000     -0.991870000000000
O       1.609380000000000     -1.359660000000000     -0.779660000000000
C       1.654990000000000     -3.420410000000000      0.488500000000000
C       3.157300000000000     -0.588180000000000     -2.462720000000000
H       0.454380000000000     -2.983980000000000     -1.237920000000000
H       2.175770000000000     -3.208800000000000     -1.624880000000000
H       3.077550000000000      0.008310000000000     -0.399450000000000
H       3.695140000000000     -1.641100000000000     -0.621240000000000
H       2.419940000000000      0.169830000000000     -2.801760000000000
H       4.179570000000000     -0.178220000000000     -2.599210000000000
H       3.048560000000000     -1.499980000000000     -3.084960000000000
H       0.912430000000000     -3.012440000000000      1.207000000000000
H       1.495370000000000     -4.515310000000000      0.395210000000000
H       2.677240000000000     -3.240360000000000      0.880020000000000
C       1.425200000000000      2.700880000000000     -0.386850000000000
C      -0.753600000000000      2.830550000000000      0.482430000000000
O       0.281200000000000      1.982460000000000      0.024980000000000
C       2.395410000000000      2.888870000000000      0.774100000000000
C      -1.679680000000000      3.226240000000000     -0.661970000000000
H       1.932900000000000      2.100850000000000     -1.170670000000000
H       1.175280000000000      3.676000000000000     -0.860510000000000
H      -1.350900000000000      2.261360000000000      1.226450000000000
H      -0.370840000000000      3.729390000000000      1.014780000000000
H      -2.097130000000000      2.320440000000000     -1.144250000000000
H      -2.518590000000000      3.836210000000000     -0.266350000000000
H      -1.131840000000000      3.818660000000000     -1.422470000000000
H       2.680910000000000      1.905810000000000      1.204140000000000
H       3.308770000000000      3.396850000000000      0.405140000000000
H       1.937200000000000      3.511500000000000      1.569170000000000
Mg      8.542719999999999      4.740890000000000      3.171490000000000
C       7.650540000000000      7.884140000000000      4.445640000000000
C       6.825830000000000      7.465760000000000      2.246120000000000
O       7.370890000000000      6.930340000000000      3.437410000000000
C       6.405650000000000      8.561489999999999      5.010300000000000
C       7.773350000000000      8.410000000000000      1.510620000000000
H       8.127680000000000      7.325070000000000      5.279370000000000
H       8.398470000000000      8.632160000000001      4.120510000000000
H       6.653390000000000      6.607270000000000      1.566950000000000
H       5.823980000000000      7.911750000000000      2.409830000000000
H       8.760460000000000      7.924620000000000      1.364550000000000
H       7.343750000000000      8.654290000000000      0.516800000000000
H       7.900470000000000      9.356909999999999      2.071140000000000
H       5.671060000000000      7.805240000000000      5.352680000000000
H       6.700230000000000      9.191210000000000      5.875920000000000
H       5.938590000000000      9.217760000000000      4.249870000000000
H      10.581009999999999      5.862980000000000      5.021550000000000
C      11.114879999999999      6.987540000000000      3.214200000000000
C      10.684270000000000      5.723240000000000      3.925680000000000
C      12.494540000000001      7.396480000000000      3.701330000000000
H      11.136070000000000      6.807910000000000      2.119490000000000
H      10.382690000000000      7.791740000000000      3.422650000000000
H      12.457770000000000      7.567990000000000      4.799280000000000
H      13.214320000000001      6.577200000000000      3.484950000000000
C      12.955439999999999      8.668640000000000      3.008530000000000
H      11.336090000000000      4.860800000000000      3.675140000000000
H      13.006550000000001      8.509230000000001      1.910210000000000
H      12.250870000000001      9.499620000000000      3.226480000000000
H      13.963130000000000      8.939200000000000      3.383430000000000
C       5.889030000000000      0.733590000000000      4.158870000000000
C       6.549370000000000      0.106540000000000      3.133820000000000
C       6.760980000000000      1.043990000000000      2.129450000000000
C       6.258780000000000      2.216820000000000      2.541940000000000
N       5.675910000000000      2.073890000000000      3.810230000000000
C       6.211880000000000      3.534290000000000      1.791990000000000
N       7.501880000000000      4.199040000000000      1.544460000000000
C       8.425369999999999      3.856870000000000      0.451740000000000
H       6.840760000000000     -0.936180000000000      3.128240000000000
H       5.574380000000000      0.287250000000000      5.091760000000000
H       7.234350000000000      0.833800000000000      1.188490000000000
H       5.639350000000000      4.232600000000000      2.441760000000000
H       5.627690000000000      3.434320000000000      0.862790000000000
C       7.672180000000000      3.290260000000000     -0.755000000000000
C       9.126289999999999      5.160790000000000      0.023500000000000
C       9.516389999999999      2.890430000000000      0.955390000000000
H       6.901930000000000      4.021580000000000     -1.084560000000000
H       8.369870000000001      3.100350000000000     -1.595020000000000
H       7.171860000000000      2.339290000000000     -0.495420000000000
H       9.669689999999999      5.608140000000000      0.880110000000000
H       9.862890000000000      4.973550000000000     -0.787550000000000
H       8.388560000000000      5.910490000000000     -0.333500000000000
H      10.119899999999999      3.358020000000000      1.765060000000000
H       9.098640000000000      1.959680000000000      1.363800000000000
H      10.208420000000000      2.623950000000000      0.128180000000000
C       7.972970000000000      3.188800000000000      5.861360000000000
C       6.205930000000000      4.715920000000000      5.521880000000000
O       7.563610000000000      4.408590000000000      5.274370000000000
C       8.968850000000000      2.476370000000000      4.943370000000000
C       6.011420000000000      5.249180000000000      6.925940000000000
H       8.480900000000000      3.414520000000000      6.820490000000000
H       7.131940000000000      2.487740000000000      6.051910000000000
H       5.892090000000000      5.491320000000000      4.795000000000000
H       5.523230000000000      3.869080000000000      5.342850000000000
H       6.665730000000000      6.129890000000000      7.088110000000000
H       4.949750000000000      5.543890000000000      7.056610000000000
H       6.261390000000000      4.455560000000000      7.658720000000000
H       8.506240000000000      2.221710000000000      3.972370000000000
H       9.852460000000001      3.114700000000000      4.741910000000000
H       9.313100000000000      1.535090000000000      5.419050000000000

-C 0
6-31g(d,p)
****
-H 0
6-31g(d,p)
****
-Mg 0
6-31g(d,p)
****
-N 0
6-31+g(d,p)
****
-Na 0
6-31g(d,p)
****
-O 0
6-31+g(d,p)
****


