%chk=lowest10_c1_a1_speciation0_speciationDFT36_rank01_E98.82.chk
%nprocshared=20
%mem=40GB
#p opt=loose PM7/gen scf=xqc 

lowest10_c1_a1_speciation0_speciationDFT36_rank01_E98.82 DFT input

0 1
Na     -0.121040000000000      1.973860000000000     -0.912350000000000
C      -0.223880000000000     -1.427260000000000     -0.519430000000000
C       0.356490000000000     -0.427490000000000      1.488730000000000
O       0.020350000000000     -0.205600000000000      0.138180000000000
C      -0.582060000000000     -1.127810000000000     -1.969890000000000
C       0.604420000000000      0.925230000000000      2.145390000000000
H       0.685160000000000     -2.070590000000000     -0.514250000000000
H      -1.086450000000000     -1.957690000000000     -0.059140000000000
H      -0.478540000000000     -0.926960000000000      2.030890000000000
H       1.291190000000000     -1.026640000000000      1.572510000000000
H      -0.310210000000000      1.553190000000000      2.080400000000000
H       0.873650000000000      0.792570000000000      3.214060000000000
H       1.435310000000000      1.452030000000000      1.628390000000000
H       0.255290000000000     -0.592080000000000     -2.466350000000000
H      -0.781330000000000     -2.071080000000000     -2.520450000000000
H      -1.490360000000000     -0.488970000000000     -2.012710000000000
Mg      0.065120000000000     -4.784040000000000      5.949850000000000
C       1.325720000000000     -7.657270000000000      3.880820000000000
C      -0.979180000000000     -7.735200000000000      3.894200000000000
O       0.170330000000000     -7.491520000000000      4.679850000000000
C       2.545270000000000     -7.827180000000000      4.773990000000000
C      -2.231070000000000     -7.470710000000000      4.720170000000000
H       1.266110000000000     -8.569240000000001      3.245950000000000
H       1.476940000000000     -6.767950000000000      3.234760000000000
H      -1.003030000000000     -7.076280000000000      3.001080000000000
H      -1.008340000000000     -8.795109999999999      3.564320000000000
H      -2.266790000000000     -6.412650000000000      5.049450000000000
H      -3.134070000000000     -7.681140000000000      4.108820000000000
H      -2.241030000000000     -8.128340000000000      5.614090000000000
H       2.419190000000000     -8.709720000000001      5.433140000000000
H       3.454700000000000     -7.953580000000000      4.150680000000000
H       2.690010000000000     -6.943140000000000      5.410640000000000
H      -1.920980000000000     -6.611970000000000      7.640950000000000
C      -2.073620000000000     -4.444430000000000      8.016120000000001
C      -1.277090000000000     -5.727270000000000      7.810330000000000
C      -2.984130000000000     -4.140870000000000      6.818180000000000
H      -2.683070000000000     -4.569460000000000      8.933630000000001
H      -1.367950000000000     -3.595600000000000      8.158890000000000
H      -2.373980000000000     -3.953050000000000      5.906860000000000
H      -3.652260000000000     -5.007050000000000      6.625340000000000
C      -3.852680000000000     -2.915950000000000      7.095810000000000
H      -0.561360000000000     -5.899540000000000      8.639780000000000
H      -4.483680000000000     -3.096020000000000      7.992550000000000
H      -3.221120000000000     -2.018960000000000      7.269730000000000
H      -4.520190000000000     -2.720760000000000      6.229950000000000
C      -1.148570000000000     -4.524060000000000      3.041030000000000
C      -0.548490000000000     -4.220110000000000      1.832760000000000
C       0.792520000000000     -3.986160000000000      2.099200000000000
C       0.957260000000000     -4.173800000000000      3.451540000000000
N      -0.217050000000000     -4.508230000000000      4.002730000000000
C       2.223940000000000     -4.017900000000000      4.273880000000000
N       2.058430000000000     -4.616230000000000      5.618970000000000
C       2.995470000000000     -4.241900000000000      6.697120000000000
H      -1.034820000000000     -4.174610000000000      0.870080000000000
H      -2.195480000000000     -4.759990000000000      3.196800000000000
H       1.563000000000000     -3.721200000000000      1.388880000000000
H       3.060720000000000     -4.535040000000000      3.762770000000000
H       2.431200000000000     -2.931810000000000      4.334620000000000
C       2.743130000000000     -2.800290000000000      7.173100000000000
C       2.775110000000000     -5.192390000000000      7.892030000000000
C       4.449880000000000     -4.399920000000000      6.210950000000000
H       1.711390000000000     -2.697210000000000      7.573170000000000
H       3.459450000000000     -2.534140000000000      7.981210000000000
H       2.879540000000000     -2.069440000000000      6.352520000000000
H       2.956460000000000     -6.249950000000000      7.607420000000000
H       3.467240000000000     -4.943570000000000      8.726910000000000
H       1.735600000000000     -5.110940000000000      8.272420000000000
H       4.624190000000000     -5.438880000000000      5.855120000000000
H       4.666200000000000     -3.703050000000000      5.375030000000000
H       5.167810000000000     -4.184290000000000      7.030020000000000

-C 0
6-31g(d,p)
****
-H 0
6-31g(d,p)
****
-Mg 0
6-31g(d,p)
****
-N 0
6-31+g(d,p)
****
-Na 0
6-31g(d,p)
****
-O 0
6-31+g(d,p)
****


