%chk=lowest10_c1_a1_speciation0_speciationDFT37b_rank02_E82.00.chk
%nprocshared=20
%mem=40GB
#p opt=loose PM7/gen scf=xqc 

lowest10_c1_a1_speciation0_speciationDFT37b_rank02_E82.00 DFT input

0 1
Na      0.121570000000000      1.982610000000000     -0.916650000000000
C      -0.355400000000000     -0.428240000000000      1.487890000000000
C       0.224160000000000     -1.433630000000000     -0.516680000000000
O      -0.017950000000000     -0.209230000000000      0.137670000000000
C      -0.604440000000000      0.924750000000000      2.143590000000000
C       0.583500000000000     -1.134380000000000     -1.967180000000000
H      -1.288760000000000     -1.029940000000000      1.572060000000000
H       0.481000000000000     -0.923170000000000      2.030010000000000
H       1.081930000000000     -1.971060000000000     -0.051920000000000
H      -0.686960000000000     -2.073990000000000     -0.512140000000000
H       1.491480000000000     -0.494910000000000     -2.010070000000000
H       0.781920000000000     -2.077370000000000     -2.518050000000000
H      -0.253590000000000     -0.597360000000000     -2.463410000000000
H      -1.435530000000000      1.451310000000000      1.626830000000000
H      -0.873460000000000      0.791410000000000      3.212300000000000
H       0.310260000000000      1.552670000000000      2.079310000000000
Mg     -0.483670000000000     -6.845950000000000      2.283580000000000
C       1.927240000000000     -6.933410000000000      0.192240000000000
C       0.053390000000000     -8.179660000000000     -0.596520000000000
O       0.872780000000000     -7.825670000000000      0.497350000000000
C       1.468600000000000     -5.589490000000000     -0.374060000000000
C       0.772430000000000     -9.103170000000000     -1.566410000000000
H       2.422840000000000     -6.713470000000000      1.155140000000000
H       2.709450000000000     -7.412430000000000     -0.429400000000000
H      -0.808250000000000     -8.740690000000001     -0.172960000000000
H      -0.393300000000000     -7.301560000000000     -1.106470000000000
H       1.214940000000000     -9.955120000000001     -1.008440000000000
H       0.048530000000000     -9.490539999999999     -2.312730000000000
H       1.570830000000000     -8.549040000000000     -2.099360000000000
H       0.630600000000000     -5.180230000000000      0.224230000000000
H       2.314380000000000     -4.871160000000000     -0.341640000000000
H       1.149690000000000     -5.700130000000000     -1.429100000000000
H      -2.020500000000000     -4.844010000000000      1.660620000000000
C      -3.317910000000000     -6.594670000000000      1.746990000000000
C      -2.045440000000000     -5.896210000000000      1.313270000000000
C      -3.401730000000000     -6.662710000000000      3.276150000000000
H      -4.171160000000000     -6.025520000000000      1.327930000000000
H      -3.328330000000000     -7.631590000000000      1.342360000000000
H      -2.599390000000000     -7.324930000000000      3.663700000000000
H      -3.262180000000000     -5.653650000000000      3.717980000000000
C      -4.757670000000000     -7.197150000000000      3.719730000000000
H      -1.914970000000000     -5.939550000000000      0.213480000000000
H      -5.555920000000000     -6.504990000000000      3.375980000000000
H      -4.941030000000000     -8.207430000000000      3.296880000000000
H      -4.794020000000000     -7.256810000000000      4.827730000000000
C      -1.282060000000000     -9.257199999999999      5.155180000000000
C      -1.088900000000000     -9.679660000000000      3.861160000000000
C       0.089830000000000     -9.112539999999999      3.409450000000000
C       0.585330000000000     -8.348760000000000      4.394010000000000
N      -0.220290000000000     -8.421049999999999      5.541980000000000
C       1.832980000000000     -7.503740000000000      4.323530000000000
N       1.649140000000000     -6.339280000000000      3.441340000000000
C       1.381270000000000     -5.021600000000000      4.070070000000000
H      -1.757110000000000    -10.323370000000001      3.300760000000000
H      -2.120910000000000     -9.509040000000001      5.785070000000000
H       0.512990000000000     -9.251519999999999      2.429350000000000
H       2.666590000000000     -8.125019999999999      3.932680000000000
H       2.106030000000000     -7.199030000000000      5.347000000000000
C       2.574500000000000     -4.579580000000000      4.939750000000000
C       1.211730000000000     -3.989290000000000      2.937560000000000
C       0.083820000000000     -5.032550000000000      4.906400000000000
H       3.512900000000000     -4.619100000000000      4.346970000000000
H       2.426250000000000     -3.538750000000000      5.299910000000000
H       2.693240000000000     -5.211010000000000      5.840650000000000
H       0.332250000000000     -4.235920000000000      2.308140000000000
H       1.052730000000000     -2.967730000000000      3.346970000000000
H       2.110950000000000     -3.968560000000000      2.284980000000000
H      -0.799770000000000     -5.242160000000000      4.266900000000000
H       0.127080000000000     -5.792970000000000      5.709180000000000
H      -0.073440000000000     -4.043930000000000      5.391280000000000

-C 0
6-31g(d,p)
****
-H 0
6-31g(d,p)
****
-Mg 0
6-31g(d,p)
****
-N 0
6-31+g(d,p)
****
-Na 0
6-31g(d,p)
****
-O 0
6-31+g(d,p)
****


