%chk=lowest10_c1_a1_speciation3_speciationDFT38_rank06_E135.20.chk
%nprocshared=20
%mem=40GB
#p opt=loose PM7/gen scf=xqc 

lowest10_c1_a1_speciation3_speciationDFT38_rank06_E135.20 DFT input

0 1
Na     -0.258320000000000     -0.277720000000000      0.007740000000000
C       0.313560000000000      0.254450000000000      3.049100000000000
C      -1.391330000000000     -1.356330000000000      2.882260000000000
O      -0.676880000000000     -0.330230000000000      2.228340000000000
C       1.644370000000000     -0.482280000000000      2.926070000000000
C      -2.628410000000000     -0.784870000000000      3.562800000000000
H       0.466340000000000      1.294510000000000      2.694090000000000
H      -0.003900000000000      0.334120000000000      4.111060000000000
H      -1.720130000000000     -2.084530000000000      2.109100000000000
H      -0.764990000000000     -1.930880000000000      3.600130000000000
H      -3.265770000000000     -0.262270000000000      2.817680000000000
H      -3.213190000000000     -1.607120000000000      4.024090000000000
H      -2.334110000000000     -0.064960000000000      4.353630000000000
H       1.974490000000000     -0.511410000000000      1.867090000000000
H       2.414440000000000      0.051350000000000      3.521980000000000
H       1.556330000000000     -1.519910000000000      3.307020000000000
C      -0.969010000000000     -0.650000000000000     -3.089010000000000
C      -2.929550000000000     -0.494040000000000     -1.815020000000000
O      -1.542350000000000     -0.740800000000000     -1.802560000000000
C      -0.591940000000000      0.788830000000000     -3.436380000000000
C      -3.421570000000000     -0.460230000000000     -0.370900000000000
H      -0.030280000000000     -1.243150000000000     -3.067480000000000
H      -1.609030000000000     -1.108610000000000     -3.874250000000000
H      -3.166580000000000      0.489690000000000     -2.273690000000000
H      -3.462320000000000     -1.310350000000000     -2.348360000000000
H      -2.907820000000000      0.346960000000000      0.194440000000000
H      -4.515340000000000     -0.274020000000000     -0.341280000000000
H      -3.209130000000000     -1.430030000000000      0.127040000000000
H       0.061990000000000      1.215670000000000     -2.648050000000000
H      -0.041600000000000      0.803800000000000     -4.400550000000000
H      -1.495620000000000      1.422330000000000     -3.538120000000000
C       1.481230000000000     -2.764120000000000     -0.878210000000000
C       2.932170000000000     -0.918860000000000     -0.993720000000000
O       1.608070000000000     -1.359790000000000     -0.781030000000000
C       1.654530000000000     -3.420460000000000      0.487580000000000
C       3.155350000000000     -0.588780000000000     -2.464700000000000
H       0.453660000000000     -2.984450000000000     -1.238860000000000
H       2.175050000000000     -3.208940000000000     -1.625990000000000
H       3.075850000000000      0.008670000000000     -0.401530000000000
H       3.693750000000000     -1.640660000000000     -0.623010000000000
H       2.418460000000000      0.168940000000000     -2.805220000000000
H       4.177890000000000     -0.180020000000000     -2.602830000000000
H       3.045190000000000     -1.501760000000000     -3.083600000000000
H       0.912100000000000     -3.012600000000000      1.206300000000000
H       1.495090000000000     -4.515400000000000      0.394560000000000
H       2.676810000000000     -3.240360000000000      0.879050000000000
C       1.425240000000000      2.701320000000000     -0.388370000000000
C      -0.753770000000000      2.830510000000000      0.481710000000000
O       0.281110000000000      1.982850000000000      0.023620000000000
C       2.395770000000000      2.888690000000000      0.772950000000000
C      -1.680110000000000      3.226240000000000     -0.662390000000000
H       1.932450000000000      2.100690000000000     -1.172000000000000
H       1.175330000000000      3.676290000000000     -0.862180000000000
H      -1.350890000000000      2.260970000000000      1.225720000000000
H      -0.371110000000000      3.729190000000000      1.014330000000000
H      -2.097470000000000      2.320430000000000     -1.144780000000000
H      -2.519000000000000      3.836070000000000     -0.266510000000000
H      -1.132330000000000      3.818770000000000     -1.422810000000000
H       2.676110000000000      1.904640000000000      1.203730000000000
H       3.315010000000000      3.392830000000000      0.408310000000000
H       1.936620000000000      3.512070000000000      1.567080000000000
Mg      2.308550000000000     -1.009530000000000     -9.837800000000000
C      -0.390480000000000     -2.283840000000000     -8.435840000000001
C       1.504620000000000     -3.675480000000000     -7.988730000000000
O       0.944760000000000     -2.632520000000000     -8.757170000000000
C      -0.670750000000000     -2.055800000000000     -6.948200000000000
C       0.851140000000000     -5.019740000000000     -8.270140000000000
H      -0.578760000000000     -1.314020000000000     -8.936820000000001
H      -1.104610000000000     -3.007310000000000     -8.878539999999999
H       2.567420000000000     -3.755340000000000     -8.287440000000000
H       1.535410000000000     -3.432980000000000     -6.908250000000000
H       1.412020000000000     -5.813840000000000     -7.735180000000000
H       0.870210000000000     -5.232200000000000     -9.359150000000000
H      -0.197460000000000     -5.017240000000000     -7.913990000000000
H       0.053450000000000     -1.344200000000000     -6.518250000000000
H      -0.631910000000000     -3.011750000000000     -6.388470000000000
H      -1.683060000000000     -1.621380000000000     -6.826510000000000
H       2.320760000000000     -2.517110000000000    -12.039470000000000
C       4.451120000000000     -2.351360000000000    -11.545150000000000
C       3.041910000000000     -1.751720000000000    -11.688770000000000
C       4.587980000000000     -3.471240000000000    -10.494429999999999
H       4.766910000000000     -2.742150000000000    -12.534710000000000
H       5.147750000000000     -1.537930000000000    -11.249260000000000
H       5.645890000000000     -3.818660000000000    -10.490860000000000
H       4.369840000000000     -3.067680000000000     -9.485189999999999
C       3.699270000000000     -4.684610000000000    -10.767379999999999
H       3.057990000000000     -0.907620000000000    -12.404680000000001
H       2.630400000000000     -4.399170000000000    -10.732350000000000
H       3.929800000000000     -5.122460000000000    -11.760520000000000
H       3.874450000000000     -5.459130000000000     -9.988540000000000
C       3.552150000000000     -1.529120000000000     -6.136500000000000
C       4.396020000000000     -1.187400000000000     -7.166160000000000
C       3.788350000000000     -0.172890000000000     -7.885640000000000
C       2.597780000000000      0.075140000000000     -7.323380000000000
N       2.397940000000000     -0.730210000000000     -6.189820000000000
C       1.571080000000000      1.048390000000000     -7.845400000000000
N       1.181130000000000      0.648420000000000     -9.202030000000001
C       0.290000000000000      1.538300000000000     -9.986879999999999
H       5.350010000000000     -1.653440000000000     -7.379250000000000
H       3.727110000000000     -2.301250000000000     -5.402770000000000
H       4.180810000000000      0.295850000000000     -8.777320000000000
H       2.003820000000000      2.065710000000000     -7.830400000000000
H       0.684540000000000      1.008300000000000     -7.176890000000000
C       1.004450000000000      2.860370000000000    -10.329090000000001
C      -0.088390000000000      0.828010000000000    -11.296780000000000
C      -1.009670000000000      1.845480000000000     -9.204650000000001
H       1.925270000000000      2.663790000000000    -10.916700000000001
H       0.336760000000000      3.521020000000000    -10.925090000000001
H       1.279310000000000      3.423090000000000     -9.414360000000000
H      -0.639530000000000     -0.113810000000000    -11.091460000000000
H      -0.740000000000000      1.479240000000000    -11.922359999999999
H       0.822250000000000      0.582480000000000    -11.882270000000000
H      -1.546670000000000      0.907730000000000     -8.947480000000001
H      -0.798510000000000      2.397400000000000     -8.265210000000000
H      -1.695310000000000      2.478150000000000     -9.810510000000001

-C 0
6-31g(d,p)
****
-H 0
6-31g(d,p)
****
-Mg 0
6-31g(d,p)
****
-N 0
6-31+g(d,p)
****
-Na 0
6-31g(d,p)
****
-O 0
6-31+g(d,p)
****


