%chk=lowest10_c1_a1_speciation0_speciationDFT1_rank09_E97.56.chk
%nprocshared=20
%mem=40GB
#p opt=loose PM7/gen scf=xqc 

lowest10_c1_a1_speciation0_speciationDFT1_rank09_E97.56 DFT input

0 1
Na      1.701880000000000     -0.764710000000000     -0.912700000000000
C      -1.195980000000000      1.025320000000000     -0.519090000000000
C      -0.616720000000000      0.021470000000000      1.487460000000000
O      -0.257110000000000      0.204920000000000      0.137440000000000
C      -0.755670000000000      1.187490000000000     -1.969330000000000
C       0.432500000000000     -0.868350000000000      2.143430000000000
H      -2.205690000000000      0.555460000000000     -0.515690000000000
H      -1.233040000000000      2.037150000000000     -0.055250000000000
H      -0.631660000000000      0.993650000000000      2.030640000000000
H      -1.602940000000000     -0.489250000000000      1.570320000000000
H       1.432640000000000     -0.388120000000000      2.080150000000000
H       0.182410000000000     -1.037450000000000      3.211670000000000
H       0.477100000000000     -1.849460000000000      1.624810000000000
H      -0.708340000000000      0.194410000000000     -2.465880000000000
H      -1.472800000000000      1.830580000000000     -2.521090000000000
H       0.251530000000000      1.655420000000000     -2.011340000000000
Mg     -4.797980000000000     -4.813690000000000      2.399890000000000
H      -5.361200000000000     -4.378460000000000      5.309690000000000
C      -3.757890000000000     -5.867060000000000      5.454840000000000
C      -5.017200000000000     -5.312450000000000      4.820360000000000
C      -4.052660000000000     -6.253340000000000      6.898670000000000
H      -3.420890000000000     -6.756760000000000      4.879220000000000
H      -2.959430000000000     -5.093800000000000      5.411990000000000
H      -4.399390000000000     -5.354220000000000      7.453290000000000
H      -4.858260000000000     -7.019810000000000      6.913880000000000
C      -2.816450000000000     -6.816040000000000      7.582510000000000
H      -5.825290000000000     -6.071430000000000      4.763300000000000
H      -2.464850000000000     -7.726190000000000      7.051720000000000
H      -2.004940000000000     -6.057770000000000      7.592180000000000
H      -3.072620000000000     -7.084300000000000      8.628180000000000
C      -6.832240000000000     -2.646890000000000      1.291210000000000
C      -6.878350000000000     -1.972150000000000      0.081620000000000
C      -5.793610000000000     -2.408160000000000     -0.663340000000000
C      -5.126940000000000     -3.317820000000000      0.122770000000000
N      -5.763180000000000     -3.456750000000000      1.295230000000000
C      -3.873780000000000     -4.097080000000000     -0.225650000000000
N      -3.373560000000000     -4.820450000000000      0.960500000000000
C      -2.139030000000000     -5.623000000000000      0.891350000000000
H      -7.619430000000000     -1.248660000000000     -0.227080000000000
H      -7.539090000000000     -2.551020000000000      2.107050000000000
H      -5.515260000000000     -2.095610000000000     -1.660380000000000
H      -3.105700000000000     -3.382700000000000     -0.573450000000000
H      -4.139360000000000     -4.809090000000000     -1.033580000000000
C      -0.936560000000000     -4.695350000000000      0.635520000000000
C      -1.926440000000000     -6.335310000000000      2.239710000000000
C      -2.239810000000000     -6.684590000000000     -0.218310000000000
H      -0.857620000000000     -3.942310000000000      1.449560000000000
H       0.009040000000000     -5.275760000000000      0.595960000000000
H      -1.038250000000000     -4.157870000000000     -0.328430000000000
H      -2.766630000000000     -7.028780000000000      2.456770000000000
H      -0.984370000000000     -6.928420000000000      2.223780000000000
H      -1.853450000000000     -5.598440000000000      3.067870000000000
H      -3.113450000000000     -7.347760000000000     -0.038840000000000
H      -2.350540000000000     -6.210070000000000     -1.214620000000000
H      -1.320590000000000     -7.308270000000000     -0.244930000000000

-C 0
6-31g(d,p)
****
-H 0
6-31g(d,p)
****
-Mg 0
6-31g(d,p)
****
-N 0
6-31+g(d,p)
****
-Na 0
6-31g(d,p)
****
-O 0
6-31+g(d,p)
****


