%chk=lowest10_c1_a1_speciation0_speciationDFT36_rank09_E99.48.chk
%nprocshared=20
%mem=40GB
#p opt=loose PM7/gen scf=xqc 

lowest10_c1_a1_speciation0_speciationDFT36_rank09_E99.48 DFT input

0 1
Na      0.000220000000000     -0.976210000000000     -1.823120000000000
C      -1.158460000000000      0.634380000000000      0.971980000000000
C       1.158810000000000      0.634890000000000      0.971780000000000
O       0.000210000000000      0.235400000000000      0.276350000000000
C      -2.374410000000000      0.177620000000000      0.174430000000000
C       2.374780000000000      0.179020000000000      0.173890000000000
H      -1.204550000000000      0.154450000000000      1.975890000000000
H      -1.204370000000000      1.743330000000000      1.064900000000000
H       1.204250000000000      1.743840000000000      1.064830000000000
H       1.205290000000000      0.154800000000000      1.975560000000000
H       2.361830000000000      0.640630000000000     -0.837000000000000
H       3.310450000000000      0.476350000000000      0.691920000000000
H       2.362640000000000     -0.925920000000000      0.060450000000000
H      -2.362570000000000     -0.928020000000000      0.062600000000000
H      -3.310030000000000      0.475890000000000      0.692060000000000
H      -2.361530000000000      0.638870000000000     -0.836710000000000
Mg      0.623120000000000     -6.699320000000000      3.906650000000000
C      -1.263940000000000     -3.471350000000000      3.539410000000000
C      -0.176060000000000     -3.445290000000000      5.573160000000000
O      -0.908140000000000     -4.246810000000000      4.667840000000000
C      -2.387860000000000     -4.159870000000000      2.780020000000000
C       0.290400000000000     -4.293460000000000      6.749200000000000
H      -1.643050000000000     -2.465530000000000      3.827270000000000
H      -0.392880000000000     -3.356180000000000      2.861840000000000
H       0.716890000000000     -3.001170000000000      5.085560000000000
H      -0.813620000000000     -2.629870000000000      5.975150000000000
H       0.959270000000000     -5.107680000000000      6.404380000000000
H       0.848810000000000     -3.659140000000000      7.469820000000000
H      -0.584870000000000     -4.738930000000000      7.266070000000000
H      -3.272010000000000     -4.289870000000000      3.436320000000000
H      -2.667400000000000     -3.556730000000000      1.891380000000000
H      -2.073030000000000     -5.153500000000000      2.431330000000000
H      -0.485030000000000     -7.252790000000000      6.839830000000000
C       1.054490000000000     -8.661500000000000      6.127260000000000
C      -0.216810000000000     -7.841910000000000      5.941510000000000
C       2.256100000000000     -7.775800000000000      6.484880000000000
H       0.868160000000000     -9.393590000000000      6.938550000000000
H       1.276460000000000     -9.209519999999999      5.184250000000000
H       2.486450000000000     -7.080470000000000      5.647310000000000
H       2.024030000000000     -7.175700000000000      7.390340000000000
C       3.488860000000000     -8.628690000000001      6.776060000000000
H      -1.063040000000000     -8.474050000000000      5.603560000000000
H       3.281050000000000     -9.315260000000000      7.624670000000000
H       3.770520000000000     -9.227800000000000      5.884180000000000
H       4.343940000000000     -7.976420000000000      7.053140000000000
C       2.687090000000000     -4.311110000000000      4.115860000000000
C       3.140960000000000     -3.418960000000000      3.160520000000000
C       2.527940000000000     -3.766720000000000      1.965730000000000
C       1.717030000000000     -4.842160000000000      2.244170000000000
N       1.814980000000000     -5.151270000000000      3.544020000000000
C       0.844040000000000     -5.632560000000000      1.285720000000000
N      -0.103580000000000     -6.499010000000000      2.024390000000000
C      -0.757550000000000     -7.620170000000000      1.320030000000000
H       3.839530000000000     -2.610210000000000      3.317600000000000
H       2.966900000000000     -4.328550000000000      5.163520000000000
H       2.649530000000000     -3.286390000000000      1.005460000000000
H       0.258940000000000     -4.931650000000000      0.657080000000000
H       1.528580000000000     -6.228290000000000      0.651080000000000
C       0.243960000000000     -8.753110000000000      1.033290000000000
C      -1.877550000000000     -8.180009999999999      2.220940000000000
C      -1.392540000000000     -7.120240000000000      0.007160000000000
H       0.663960000000000     -9.151260000000001      1.982110000000000
H      -0.264330000000000     -9.586119999999999      0.499620000000000
H       1.079170000000000     -8.407870000000001      0.393510000000000
H      -2.638090000000000     -7.404680000000000      2.450670000000000
H      -2.398330000000000     -9.027500000000000      1.722420000000000
H      -1.461290000000000     -8.550140000000001      3.180970000000000
H      -2.104860000000000     -6.292590000000000      0.216960000000000
H      -0.615980000000000     -6.744760000000000     -0.690820000000000
H      -1.944270000000000     -7.937450000000000     -0.503300000000000

-C 0
6-31g(d,p)
****
-H 0
6-31g(d,p)
****
-Mg 0
6-31g(d,p)
****
-N 0
6-31+g(d,p)
****
-Na 0
6-31g(d,p)
****
-O 0
6-31+g(d,p)
****


