%chk=lowest10_c1_a1_speciation3_speciationDFT2_rank01_E133.85.chk
%nprocshared=20
%mem=40GB
#p opt=loose PM7/gen scf=xqc 

lowest10_c1_a1_speciation3_speciationDFT2_rank01_E133.85 DFT input

0 1
Na      0.156070000000000     -0.285260000000000      0.203190000000000
C       2.509660000000000      0.255090000000000     -1.823850000000000
C       3.214470000000000     -1.353770000000000     -0.262910000000000
O       2.295260000000000     -0.323150000000000     -0.552870000000000
C       1.727780000000000     -0.483870000000000     -2.905490000000000
C       4.418520000000000     -0.786590000000000      0.476200000000000
H       2.133100000000000      1.298100000000000     -1.781690000000000
H       3.587830000000000      0.325930000000000     -2.085530000000000
H       2.704590000000000     -2.085230000000000      0.401150000000000
H       3.528510000000000     -1.923860000000000     -1.165670000000000
H       4.085470000000000     -0.267010000000000      1.400070000000000
H       5.108610000000000     -1.609990000000000      0.752820000000000
H       4.958800000000000     -0.064120000000000     -0.169320000000000
H       0.647450000000000     -0.505270000000000     -2.653040000000000
H       1.855950000000000      0.042130000000000     -3.874690000000000
H       2.095070000000000     -1.524620000000000     -3.013930000000000
C      -2.181950000000000     -0.650450000000000      2.378410000000000
C      -0.099000000000000     -0.499570000000000      3.434670000000000
O      -0.782250000000000     -0.746520000000000      2.227380000000000
C      -2.665180000000000      0.789390000000000      2.216820000000000
C       1.396510000000000     -0.462800000000000      3.138770000000000
H      -2.638420000000000     -1.249540000000000      1.562160000000000
H      -2.539820000000000     -1.098990000000000      3.331380000000000
H      -0.378670000000000      0.483700000000000      3.870100000000000
H      -0.293160000000000     -1.316810000000000      4.162330000000000
H       1.626400000000000      0.344790000000000      2.410760000000000
H       1.966780000000000     -0.274280000000000      4.072050000000000
H       1.723270000000000     -1.432480000000000      2.706840000000000
H      -2.313750000000000      1.205690000000000      1.250290000000000
H      -3.774940000000000      0.809980000000000      2.229990000000000
H      -2.293310000000000      1.428400000000000      3.042550000000000
C      -1.497040000000000     -2.769770000000000     -0.867930000000000
C      -2.322860000000000     -0.927180000000000     -2.066810000000000
O      -1.476980000000000     -1.365360000000000     -1.024920000000000
C      -0.395900000000000     -3.420600000000000     -1.697440000000000
C      -3.705560000000000     -0.591730000000000     -1.522290000000000
H      -1.301790000000000     -2.991850000000000      0.202970000000000
H      -2.489440000000000     -3.216700000000000     -1.101650000000000
H      -1.880120000000000     -0.002990000000000     -2.493110000000000
H      -2.387770000000000     -1.653130000000000     -2.908280000000000
H      -3.624370000000000      0.168840000000000     -0.717330000000000
H      -4.337050000000000     -0.183940000000000     -2.338650000000000
H      -4.189600000000000     -1.501410000000000     -1.111470000000000
H       0.594160000000000     -3.008220000000000     -1.408250000000000
H      -0.393690000000000     -4.515830000000000     -1.515520000000000
H      -0.564520000000000     -3.237570000000000     -2.778660000000000
C      -1.038320000000000      2.716170000000000     -1.058230000000000
C       0.803220000000000      2.841700000000000      0.392320000000000
O      -0.112490000000000      1.994150000000000     -0.272560000000000
C      -0.515990000000000      2.896370000000000     -2.479020000000000
C       0.275750000000000      3.238260000000000      1.765810000000000
H      -1.974410000000000      2.121270000000000     -1.103480000000000
H      -1.317020000000000      3.695440000000000     -0.608700000000000
H       1.747340000000000      2.273930000000000      0.534870000000000
H       1.071250000000000      3.739340000000000     -0.205810000000000
H       0.067710000000000      2.330820000000000      2.367000000000000
H       1.037070000000000      3.849560000000000      2.293810000000000
H      -0.657600000000000      3.829580000000000      1.670940000000000
H      -0.287940000000000      1.908710000000000     -2.931890000000000
H      -1.288140000000000      3.402460000000000     -3.095110000000000
H       0.404850000000000      3.514810000000000     -2.479230000000000
Mg     -0.208680000000000     10.274649999999999     -0.729150000000000
H       1.374350000000000     12.797549999999999     -0.053860000000000
C      -0.525740000000000     13.669200000000000     -0.731260000000000
C       0.619260000000000     12.673570000000000     -0.856360000000000
C      -1.369660000000000     13.478140000000000      0.540020000000000
H      -0.107390000000000     14.696389999999999     -0.765150000000000
H      -1.199200000000000     13.532890000000000     -1.605110000000000
H      -2.164290000000000     14.255850000000001      0.537160000000000
H      -1.862750000000000     12.482989999999999      0.526460000000000
C      -0.568350000000000     13.610200000000001      1.834010000000000
H       1.110920000000000     12.749779999999999     -1.847750000000000
H       0.171080000000000     12.787250000000000      1.922490000000000
H      -0.044590000000000     14.588100000000001      1.868590000000000
H      -1.257640000000000     13.540970000000000      2.702230000000000
C      -3.337010000000000     10.025610000000000     -0.251200000000000
C      -4.119710000000000      8.973470000000001      0.201070000000000
C      -3.256520000000000      7.921830000000000      0.466740000000000
C      -1.990090000000000      8.376360000000000      0.186740000000000
N      -2.055980000000000      9.646890000000001     -0.258910000000000
C      -0.679850000000000      7.629190000000000      0.311430000000000
N       0.453000000000000      8.564850000000000      0.153030000000000
C       1.845320000000000      8.093470000000000      0.253910000000000
H      -5.193210000000000      8.970200000000000      0.318110000000000
H      -3.695870000000000     11.002610000000001     -0.558350000000000
H      -3.521010000000000      6.937550000000000      0.834010000000000
H      -0.664300000000000      6.843810000000000     -0.473570000000000
H      -0.635290000000000      7.166480000000000      1.316090000000000
C       2.122430000000000      6.966290000000000     -0.756580000000000
C       2.789900000000000      9.272860000000000     -0.044850000000000
C       2.118420000000000      7.600700000000000      1.688410000000000
H       1.926380000000000      7.317000000000000     -1.792230000000000
H       3.181300000000000      6.634990000000000     -0.688440000000000
H       1.483430000000000      6.084560000000000     -0.552110000000000
H       2.611860000000000     10.111490000000000      0.662380000000000
H       3.852880000000000      8.957090000000001      0.053650000000000
H       2.635900000000000      9.650190000000000     -1.078420000000000
H       1.926350000000000      8.419390000000000      2.416570000000000
H       1.469560000000000      6.740700000000000      1.950870000000000
H       3.173150000000000      7.271060000000000      1.799780000000000

-C 0
6-31g(d,p)
****
-H 0
6-31g(d,p)
****
-Mg 0
6-31g(d,p)
****
-N 0
6-31+g(d,p)
****
-Na 0
6-31g(d,p)
****
-O 0
6-31+g(d,p)
****


