%chk=lowest10_c1_a1_speciation0_speciationDFT96_rank08_E105.02.chk
%nprocshared=20
%mem=40GB
#p opt=loose PM7/gen scf=xqc 

lowest10_c1_a1_speciation0_speciationDFT96_rank08_E105.02 DFT input

0 1
Na      0.124320000000000      1.984070000000000      0.916770000000000
C      -0.353220000000000     -0.426220000000000     -1.487180000000000
C       0.224670000000000     -1.429280000000000      0.518430000000000
O      -0.022060000000000     -0.205750000000000     -0.135210000000000
C      -0.606210000000000      0.925800000000000     -2.143070000000000
C       0.583630000000000     -1.133480000000000      1.969540000000000
H       0.486350000000000     -0.919750000000000     -2.027690000000000
H      -1.284110000000000     -1.031200000000000     -1.574420000000000
H      -0.683060000000000     -2.074230000000000      0.511650000000000
H       1.083980000000000     -1.958850000000000      0.052670000000000
H      -0.255510000000000     -0.600600000000000      2.466600000000000
H       0.785180000000000     -2.077790000000000      2.517650000000000
H       1.489920000000000     -0.491950000000000      2.014120000000000
H       0.305770000000000      1.557350000000000     -2.076630000000000
H      -0.872970000000000      0.791920000000000     -3.212280000000000
H      -1.440490000000000      1.448260000000000     -1.627350000000000
Mg      4.428180000000000     -6.575490000000000      1.974300000000000
C       3.255870000000000     -6.506430000000000      5.278370000000000
C       3.441550000000000     -4.348820000000000      4.276280000000000
O       3.385070000000000     -5.750440000000000      4.088240000000000
C       1.930990000000000     -6.287340000000000      6.002260000000000
C       4.667270000000000     -3.886320000000000      5.059980000000000
H       3.291750000000000     -7.574850000000000      4.974110000000000
H       4.112940000000000     -6.361750000000000      5.963320000000000
H       3.530490000000000     -3.900400000000000      3.266800000000000
H       2.495310000000000     -3.945270000000000      4.690040000000000
H       5.590260000000000     -4.308800000000000      4.611650000000000
H       4.725580000000000     -2.778590000000000      5.022810000000000
H       4.593950000000000     -4.190190000000000      6.122670000000000
H       1.078030000000000     -6.454890000000000      5.314430000000000
H       1.857900000000000     -7.007210000000000      6.844340000000000
H       1.878200000000000     -5.262500000000000      6.419390000000000
H       5.525430000000000     -8.779940000000000      3.639310000000000
C       6.853520000000000     -7.164760000000000      4.305340000000000
C       6.084770000000000     -7.910550000000000      3.236290000000000
C       7.907330000000000     -8.081799999999999      4.902390000000000
H       7.336180000000000     -6.270790000000000      3.859290000000000
H       6.151290000000000     -6.827170000000000      5.092240000000000
H       7.408770000000000     -8.973860000000000      5.340500000000000
H       8.600940000000000     -8.410900000000000      4.098190000000000
C       8.695729999999999     -7.363380000000000      5.985470000000000
H       6.729530000000000     -8.191390000000000      2.377880000000000
H       9.208040000000000     -6.474190000000000      5.559780000000000
H       8.015800000000000     -7.039290000000000      6.802240000000000
H       9.455520000000000     -8.056770000000000      6.399140000000000
C       1.383920000000000     -7.286440000000000     -1.804450000000000
C       2.385180000000000     -6.841040000000000     -2.628710000000000
C       3.064050000000000     -5.828050000000000     -1.961430000000000
C       2.501790000000000     -5.674440000000000     -0.754010000000000
N       1.420510000000000     -6.557200000000000     -0.608770000000000
C       2.858950000000000     -4.674150000000000      0.328350000000000
N       4.165080000000000     -4.850670000000000      0.984430000000000
C       5.448860000000000     -4.390230000000000      0.433600000000000
H       2.588810000000000     -7.222570000000000     -3.621190000000000
H       0.670940000000000     -8.069670000000000     -2.021120000000000
H       3.884470000000000     -5.269730000000000     -2.372850000000000
H       2.102990000000000     -4.813400000000000      1.132570000000000
H       2.729260000000000     -3.642430000000000     -0.036570000000000
C       5.260910000000000     -3.160690000000000     -0.459360000000000
C       6.340650000000000     -3.996880000000000      1.627170000000000
C       6.156140000000000     -5.540560000000000     -0.311370000000000
H       4.752840000000000     -2.359030000000000      0.120340000000000
H       6.241150000000000     -2.782750000000000     -0.812540000000000
H       4.643450000000000     -3.406870000000000     -1.342610000000000
H       6.484450000000000     -4.862230000000000      2.305140000000000
H       7.343510000000000     -3.660350000000000      1.285950000000000
H       5.875100000000000     -3.180820000000000      2.219660000000000
H       6.375630000000000     -6.386210000000000      0.377890000000000
H       5.549780000000000     -5.946250000000000     -1.133060000000000
H       7.121270000000000     -5.190460000000000     -0.735780000000000
C       2.660890000000000     -9.046640000000000      1.113690000000000
C       1.306940000000000     -7.605600000000000      2.402270000000000
O       2.617580000000000     -8.055930000000000      2.122000000000000
C       3.912920000000000     -8.861170000000000      0.253360000000000
C       0.554920000000000     -8.604020000000000      3.257320000000000
H       2.715520000000000    -10.040730000000000      1.601160000000000
H       1.781140000000000     -9.022910000000000      0.435030000000000
H       1.384300000000000     -6.646290000000000      2.951660000000000
H       0.721030000000000     -7.366750000000000      1.499610000000000
H       1.124330000000000     -8.807660000000000      4.187010000000000
H      -0.439570000000000     -8.183770000000001      3.513160000000000
H       0.416420000000000     -9.545210000000001      2.687870000000000
H       3.902780000000000     -7.883690000000000     -0.262380000000000
H       4.832010000000000     -8.909700000000001      0.871150000000000
H       3.961880000000000     -9.657439999999999     -0.517570000000000

-C 0
6-31g(d,p)
****
-H 0
6-31g(d,p)
****
-Mg 0
6-31g(d,p)
****
-N 0
6-31+g(d,p)
****
-Na 0
6-31g(d,p)
****
-O 0
6-31+g(d,p)
****


