%chk=lowest10_c1_a1_speciation3_speciationDFT36_rank06_E137.22.chk
%nprocshared=20
%mem=40GB
#p opt=loose PM7/gen scf=xqc 

lowest10_c1_a1_speciation3_speciationDFT36_rank06_E137.22 DFT input

0 1
Na      0.205410000000000     -0.287920000000000      0.120110000000000
C      -2.708590000000000     -1.316980000000000      0.666280000000000
C      -1.195330000000000     -3.008660000000000      1.281330000000000
O      -1.396450000000000     -1.825600000000000      0.539100000000000
C      -2.823050000000000     -0.360510000000000      1.850100000000000
C      -1.499320000000000     -4.228360000000000      0.420920000000000
H      -2.932510000000000     -0.743780000000000     -0.256960000000000
H      -3.474310000000000     -2.120160000000000      0.724330000000000
H      -0.123780000000000     -3.044500000000000      1.575700000000000
H      -1.776290000000000     -3.028930000000000      2.229870000000000
H      -0.869280000000000     -4.215790000000000     -0.494190000000000
H      -1.282580000000000     -5.152620000000000      0.995080000000000
H      -2.567730000000000     -4.232210000000000      0.123010000000000
H      -2.086950000000000      0.464300000000000      1.754600000000000
H      -3.843410000000000      0.076980000000000      1.869620000000000
H      -2.647210000000000     -0.894500000000000      2.805840000000000
C       3.148820000000000      0.691830000000000     -0.639970000000000
C       2.837950000000000     -1.532590000000000     -1.305910000000000
O       2.379360000000000     -0.481070000000000     -0.488150000000000
C       2.655890000000000      1.540550000000000     -1.810470000000000
C       1.853520000000000     -2.692100000000000     -1.187210000000000
H       3.011690000000000      1.290450000000000      0.285420000000000
H       4.237860000000000      0.479880000000000     -0.715170000000000
H       2.877390000000000     -1.233070000000000     -2.375050000000000
H       3.835490000000000     -1.881880000000000     -0.962950000000000
H       0.841980000000000     -2.376540000000000     -1.522390000000000
H       2.186120000000000     -3.545080000000000     -1.814480000000000
H       1.786370000000000     -3.027920000000000     -0.130670000000000
H       1.572870000000000      1.755020000000000     -1.700940000000000
H       3.207650000000000      2.503700000000000     -1.825950000000000
H       2.826820000000000      1.023530000000000     -2.775710000000000
C       1.302690000000000      0.966470000000000      2.805950000000000
C       0.017150000000000      2.662190000000000      1.808260000000000
O       0.564990000000000      1.368560000000000      1.669650000000000
C       0.414320000000000      0.214390000000000      3.791380000000000
C       0.972830000000000      3.709680000000000      1.249870000000000
H       2.099220000000000      0.272760000000000      2.460860000000000
H       1.823110000000000      1.814630000000000      3.304000000000000
H      -0.919900000000000      2.693590000000000      1.214420000000000
H      -0.274470000000000      2.900070000000000      2.855660000000000
H       1.215090000000000      3.482620000000000      0.190180000000000
H       0.494710000000000      4.709350000000000      1.298110000000000
H       1.912500000000000      3.729200000000000      1.838950000000000
H      -0.046780000000000     -0.667030000000000      3.296570000000000
H       1.027860000000000     -0.138850000000000      4.646740000000000
H      -0.387780000000000      0.877150000000000      4.176410000000000
C      -1.435880000000000      2.025470000000000     -1.829480000000000
C      -1.324260000000000     -0.167280000000000     -2.667670000000000
O      -1.000760000000000      0.701460000000000     -1.599970000000000
C      -2.843300000000000      2.237330000000000     -1.281650000000000
C      -0.201330000000000     -0.206400000000000     -3.697910000000000
H      -0.745440000000000      2.702860000000000     -1.284940000000000
H      -1.374640000000000      2.320330000000000     -2.900340000000000
H      -1.439680000000000     -1.189110000000000     -2.246910000000000
H      -2.296840000000000      0.082100000000000     -3.146760000000000
H       0.747640000000000     -0.512760000000000     -3.215280000000000
H      -0.450230000000000     -0.943050000000000     -4.490230000000000
H      -0.062530000000000      0.789960000000000     -4.164120000000000
H      -2.877950000000000      1.988020000000000     -0.200360000000000
H      -3.133800000000000      3.300800000000000     -1.411330000000000
H      -3.571440000000000      1.598890000000000     -1.822250000000000
Mg     -2.099450000000000      7.454160000000000      5.578600000000000
C      -0.838960000000000      7.101110000000000      9.106190000000000
C      -3.143880000000000      7.152130000000000      9.167059999999999
O      -1.994270000000000      7.710190000000000      8.563000000000001
C       0.380500000000000      7.959650000000000      8.806649999999999
C      -4.395440000000000      7.734610000000000      8.523960000000001
H      -0.898560000000000      7.007570000000000     10.213490000000000
H      -0.687760000000000      6.096880000000000      8.658960000000000
H      -3.167760000000000      6.048990000000000      9.043620000000001
H      -3.173430000000000      7.397770000000000     10.249689999999999
H      -4.429870000000000      7.490590000000000      7.442990000000000
H      -5.298720000000000      7.310080000000000      9.011070000000000
H      -4.405940000000000      8.837610000000000      8.646409999999999
H       0.254580000000000      8.971520000000000      9.242070000000000
H       1.290010000000000      7.482880000000000      9.227420000000000
H       0.524740000000000      8.069340000000000      7.722550000000000
H      -4.088940000000000      9.837619999999999      6.317620000000000
C      -4.239370000000000      9.077059999999999      4.254190000000000
C      -3.443440000000000      9.540620000000001      5.468340000000000
C      -5.149320000000000      7.887580000000000      4.590550000000000
H      -4.849220000000000      9.933710000000000      3.903050000000000
H      -3.533300000000000      8.776490000000001      3.448020000000000
H      -4.538630000000000      7.005100000000000      4.884220000000000
H      -5.817910000000000      8.153720000000000      5.436740000000000
C      -6.017210000000000      7.514310000000000      3.390930000000000
H      -2.729180000000000     10.346270000000001      5.202400000000000
H      -6.648820000000000      8.380310000000000      3.097980000000000
H      -5.385170000000000      7.216450000000000      2.527500000000000
H      -6.684060000000000      6.666490000000000      3.655260000000000
C      -3.311060000000000      4.804600000000000      6.808590000000000
C      -2.712750000000000      3.602520000000000      7.145220000000000
C      -1.371860000000000      3.718180000000000      6.809500000000000
C      -1.204740000000000      4.984080000000000      6.299650000000000
N      -2.381900000000000      5.629310000000000      6.315120000000000
C       0.060570000000000      5.620000000000000      5.755560000000000
N      -0.105460000000000      7.084020000000000      5.600980000000000
C       0.831070000000000      7.831430000000000      4.738340000000000
H      -3.198780000000000      2.743380000000000      7.582440000000000
H      -4.358900000000000      5.057500000000000      6.936040000000000
H      -0.601380000000000      2.968810000000000      6.932800000000000
H       0.896460000000000      5.437030000000000      6.460940000000000
H       0.271160000000000      5.128890000000000      4.785150000000000
C       0.578590000000000      7.522950000000000      3.252330000000000
C       0.610180000000000      9.341320000000000      4.964280000000000
C       2.285860000000000      7.489700000000000      5.117570000000000
H      -0.453910000000000      7.815570000000000      2.963370000000000
H       1.293730000000000      8.090030000000000      2.616840000000000
H       0.717060000000000      6.447480000000000      3.032650000000000
H       0.791470000000000      9.623460000000000      6.022520000000000
H       1.302130000000000      9.940320000000000      4.331550000000000
H      -0.429480000000000      9.629740000000000      4.703630000000000
H       2.460580000000000      7.701270000000000      6.195130000000000
H       2.502450000000000      6.417360000000000      4.931900000000000
H       3.003320000000000      8.091390000000001      4.520880000000000

-C 0
6-31g(d,p)
****
-H 0
6-31g(d,p)
****
-Mg 0
6-31g(d,p)
****
-N 0
6-31+g(d,p)
****
-Na 0
6-31g(d,p)
****
-O 0
6-31+g(d,p)
****


