%chk=lowest10_c1_a1_speciation0_speciationDFT38_rank08_E98.28.chk
%nprocshared=20
%mem=40GB
#p opt=loose PM7/gen scf=xqc 

lowest10_c1_a1_speciation0_speciationDFT38_rank08_E98.28 DFT input

0 1
Na     -0.124040000000000      1.982300000000000      0.915720000000000
C      -0.225500000000000     -1.432810000000000      0.516280000000000
C       0.352770000000000     -0.427850000000000     -1.488760000000000
O       0.021220000000000     -0.208890000000000     -0.137130000000000
C      -0.580590000000000     -1.133500000000000      1.967880000000000
C       0.606860000000000      0.924590000000000     -2.143400000000000
H      -1.086880000000000     -1.965360000000000      0.052800000000000
H       0.682360000000000     -2.077760000000000      0.508710000000000
H       1.282470000000000     -1.034800000000000     -1.576970000000000
H      -0.488800000000000     -0.916460000000000     -2.028700000000000
H       1.441080000000000      1.446860000000000     -1.627410000000000
H       0.873380000000000      0.791160000000000     -3.212720000000000
H      -0.305000000000000      1.556400000000000     -2.076760000000000
H      -1.486250000000000     -0.490890000000000      2.013370000000000
H      -0.781280000000000     -2.076150000000000      2.518490000000000
H       0.259460000000000     -0.600050000000000      2.462810000000000
Mg      1.874950000000000     -7.673850000000000     -3.522460000000000
C       0.755980000000000     -5.183190000000000     -1.671290000000000
C      -0.270180000000000     -5.131000000000000     -3.833210000000000
O       0.766670000000000     -5.630030000000000     -3.016040000000000
C      -0.589440000000000     -5.298730000000000     -0.951400000000000
C      -0.136710000000000     -3.638800000000000     -4.092710000000000
H       1.454220000000000     -5.848510000000000     -1.126340000000000
H       1.172860000000000     -4.158820000000000     -1.591440000000000
H      -0.182720000000000     -5.646020000000000     -4.808990000000000
H      -1.274260000000000     -5.411210000000000     -3.458230000000000
H      -0.901380000000000     -3.329770000000000     -4.835000000000000
H       0.872660000000000     -3.409720000000000     -4.492740000000000
H      -0.297200000000000     -3.075380000000000     -3.154240000000000
H      -0.997770000000000     -6.318490000000000     -1.050110000000000
H      -1.316120000000000     -4.564500000000000     -1.353270000000000
H      -0.447900000000000     -5.093880000000000      0.128600000000000
H       3.717910000000000     -6.311230000000000     -4.887450000000000
C       2.897550000000000     -7.675030000000000     -6.396520000000000
C       3.395980000000000     -7.368450000000000     -4.974000000000000
C       1.648050000000000     -6.889300000000000     -6.841780000000000
H       3.725290000000000     -7.473060000000000     -7.107650000000000
H       2.641930000000000     -8.754920000000000     -6.451350000000000
H       1.394000000000000     -7.198060000000000     -7.881010000000000
H       0.786560000000000     -7.158000000000000     -6.197860000000000
C       1.840070000000000     -5.372810000000000     -6.839240000000000
H       4.243250000000000     -8.032270000000000     -4.715570000000000
H       2.047020000000000     -5.008950000000000     -5.814550000000000
H       2.677420000000000     -5.083760000000000     -7.507430000000000
H       0.911370000000000     -4.877780000000000     -7.199290000000000
C      -2.017450000000000     -8.161740000000000     -3.879610000000000
C      -1.106090000000000     -8.858190000000000     -4.637480000000000
C      -0.113290000000000     -9.310940000000000     -3.785530000000000
C      -0.400610000000000     -8.878710000000000     -2.550570000000000
N      -1.612280000000000     -8.167520000000000     -2.534870000000000
C       0.465630000000000     -9.073969999999999     -1.332100000000000
N       1.769960000000000     -8.445729999999999     -1.568870000000000
C       2.850860000000000     -8.632800000000000     -0.569810000000000
H      -1.155730000000000     -8.998730000000000     -5.709960000000000
H      -2.903600000000000     -7.666810000000000     -4.247870000000000
H       0.767440000000000     -9.867010000000001     -4.075690000000000
H       0.565960000000000    -10.157360000000001     -1.135360000000000
H      -0.032700000000000     -8.581230000000000     -0.470040000000000
C       3.304080000000000    -10.105280000000000     -0.527100000000000
C       4.049860000000000     -7.758070000000000     -0.970260000000000
C       2.379870000000000     -8.200400000000000      0.839700000000000
H       3.673600000000000    -10.427190000000000     -1.522910000000000
H       4.120850000000000    -10.240080000000001      0.215920000000000
H       2.477190000000000    -10.776930000000000     -0.220250000000000
H       3.771030000000000     -6.683270000000000     -0.976120000000000
H       4.890610000000000     -7.892260000000000     -0.252580000000000
H       4.410050000000000     -8.033849999999999     -1.983430000000000
H       2.049480000000000     -7.139840000000000      0.837590000000000
H       1.538420000000000     -8.828980000000000      1.198330000000000
H       3.204010000000000     -8.301360000000001      1.579970000000000

-C 0
6-31g(d,p)
****
-H 0
6-31g(d,p)
****
-Mg 0
6-31g(d,p)
****
-N 0
6-31+g(d,p)
****
-Na 0
6-31g(d,p)
****
-O 0
6-31+g(d,p)
****


