%chk=lowest10_c1_a1_speciation3_speciationDFT96_rank07_E142.41.chk
%nprocshared=20
%mem=40GB
#p opt=loose PM7/gen scf=xqc 

lowest10_c1_a1_speciation3_speciationDFT96_rank07_E142.41 DFT input

0 1
Na      0.042440000000000      0.319040000000000     -0.205000000000000
C      -0.659400000000000     -1.691630000000000     -2.512000000000000
C      -0.480800000000000      0.464650000000000     -3.432550000000000
O      -0.662400000000000     -0.301080000000000     -2.261390000000000
C       0.751620000000000     -2.267880000000000     -2.435020000000000
C      -1.829880000000000      0.812200000000000     -4.048340000000000
H      -1.267190000000000     -2.172630000000000     -1.718050000000000
H      -1.147310000000000     -1.953250000000000     -3.475540000000000
H       0.027400000000000      1.410040000000000     -3.142540000000000
H       0.186050000000000     -0.028760000000000     -4.173920000000000
H      -2.458750000000000      1.351570000000000     -3.307980000000000
H      -1.678540000000000      1.462190000000000     -4.934600000000000
H      -2.357190000000000     -0.110870000000000     -4.364860000000000
H       1.208860000000000     -2.042260000000000     -1.449480000000000
H       0.703840000000000     -3.370290000000000     -2.558680000000000
H       1.392390000000000     -1.847860000000000     -3.236600000000000
C       0.544250000000000      2.378930000000000      2.186720000000000
C      -1.072920000000000      3.221490000000000      0.716340000000000
O      -0.023920000000000      2.298690000000000      0.897680000000000
C      -0.225080000000000      1.526850000000000      3.194370000000000
C      -1.718590000000000      2.948550000000000     -0.638670000000000
H       1.571080000000000      1.961940000000000      2.114180000000000
H       0.658290000000000      3.428110000000000      2.537280000000000
H      -1.859250000000000      3.105990000000000      1.492690000000000
H      -0.677820000000000      4.260060000000000      0.714580000000000
H      -2.124990000000000      1.914710000000000     -0.672200000000000
H      -2.548170000000000      3.663020000000000     -0.820310000000000
H      -0.966040000000000      3.058470000000000     -1.448090000000000
H      -0.306780000000000      0.481700000000000      2.831160000000000
H       0.315730000000000      1.523580000000000      4.163830000000000
H      -1.242740000000000      1.932290000000000      3.362450000000000
C       3.188380000000000      0.642420000000000     -0.129070000000000
C       2.735260000000000     -1.318600000000000      1.083910000000000
O       2.192730000000000     -0.196840000000000      0.420550000000000
C       3.493100000000000      0.249510000000000     -1.570730000000000
C       2.942710000000000     -1.015030000000000      2.562540000000000
H       2.789490000000000      1.679450000000000     -0.131350000000000
H       4.117620000000000      0.667650000000000      0.482970000000000
H       2.001610000000000     -2.146870000000000      0.997340000000000
H       3.673440000000000     -1.688220000000000      0.613110000000000
H       1.986040000000000     -0.696790000000000      3.027570000000000
H       3.308090000000000     -1.925570000000000      3.081390000000000
H       3.687180000000000     -0.204430000000000      2.686950000000000
H       2.567170000000000      0.291400000000000     -2.183390000000000
H       4.234980000000000      0.956710000000000     -1.997750000000000
H       3.911690000000000     -0.776910000000000     -1.614000000000000
C      -1.055760000000000     -2.260480000000000      1.796170000000000
C      -2.702910000000000     -1.067570000000000      0.619090000000000
O      -1.321180000000000     -1.221540000000000      0.876850000000000
C      -0.840990000000000     -3.584840000000000      1.071260000000000
C      -3.330900000000000     -0.075210000000000      1.590940000000000
H      -0.118630000000000     -2.001300000000000      2.331600000000000
H      -1.840640000000000     -2.355450000000000      2.578780000000000
H      -2.810080000000000     -0.657190000000000     -0.407830000000000
H      -3.253080000000000     -2.034520000000000      0.625180000000000
H      -2.807940000000000      0.899570000000000      1.530290000000000
H      -4.398300000000000      0.077640000000000      1.327070000000000
H      -3.268220000000000     -0.452960000000000      2.631510000000000
H      -0.020920000000000     -3.489420000000000      0.329040000000000
H      -0.565650000000000     -4.368450000000000      1.807650000000000
H      -1.767380000000000     -3.896020000000000      0.546820000000000
Mg     10.523600000000000      0.240180000000000      3.786490000000000
C      12.766690000000001     -2.103520000000000      5.120850000000000
C      10.474550000000001     -2.608530000000000      5.549800000000000
O      11.410620000000000     -1.868730000000000      4.788610000000000
C      13.237730000000001     -3.520330000000000      4.807440000000000
C      10.483280000000001     -2.260080000000000      7.036000000000000
H      13.365910000000000     -1.410790000000000      4.491260000000000
H      12.996029999999999     -1.829840000000000      6.168280000000000
H       9.471520000000000     -2.328660000000000      5.170890000000000
H      10.558990000000000     -3.699150000000000      5.368620000000000
H      10.393330000000001     -1.162540000000000      7.172400000000000
H       9.620970000000000     -2.754300000000000      7.530050000000000
H      11.410500000000001     -2.623450000000000      7.520960000000000
H      13.023110000000001     -3.778360000000000      3.750980000000000
H      14.333690000000001     -3.580100000000000      4.974460000000000
H      12.746589999999999     -4.252950000000000      5.477620000000000
H      13.122560000000000      1.444740000000000      4.585820000000000
C      12.177870000000000      1.344860000000000      6.564070000000000
C      12.138730000000001      1.603880000000000      5.073570000000000
C      13.121770000000000      2.335240000000000      7.224600000000000
H      11.157370000000000      1.453040000000000      6.985940000000000
H      12.523619999999999      0.308690000000000      6.746030000000000
H      14.137700000000001      2.217650000000000      6.788340000000000
H      12.759570000000000      3.368240000000000      7.030010000000000
C      13.187900000000001      2.098350000000000      8.724720000000000
H      11.711430000000000      2.599690000000000      4.834330000000000
H      12.180500000000000      2.222320000000000      9.176480000000000
H      13.560350000000000      1.072690000000000      8.933920000000001
H      13.881670000000000      2.835750000000000      9.176539999999999
C       8.982060000000001     -0.049510000000000     -0.859910000000000
C       7.985920000000000      0.834080000000000     -0.532400000000000
C       7.574030000000000      0.547460000000000      0.764030000000000
C       8.314750000000000     -0.473220000000000      1.220190000000000
N       9.207730000000000     -0.904030000000000      0.227360000000000
C       8.223630000000000     -1.175150000000000      2.561900000000000
N       8.619500000000000     -0.391320000000000      3.744090000000000
C       7.757300000000000      0.580780000000000      4.433620000000000
H       7.601450000000000      1.606890000000000     -1.185930000000000
H       9.518840000000001     -0.098370000000000     -1.797000000000000
H       6.784890000000000      1.061090000000000      1.280800000000000
H       8.948119999999999     -2.017920000000000      2.511970000000000
H       7.230060000000000     -1.637370000000000      2.696000000000000
C       6.279480000000000      0.212730000000000      4.285080000000000
C       8.126189999999999      0.536100000000000      5.929000000000000
C       8.048010000000000      2.008730000000000      3.928690000000000
H       6.116260000000000     -0.820220000000000      4.663280000000000
H       5.642590000000000      0.911980000000000      4.862900000000000
H       5.974360000000000      0.256650000000000      3.224470000000000
H       9.197670000000000      0.782920000000000      6.071210000000000
H       7.527000000000000      1.267900000000000      6.512820000000000
H       7.957090000000000     -0.477570000000000      6.350350000000000
H       9.102530000000000      2.297710000000000      4.135680000000000
H       7.893860000000000      2.112100000000000      2.845500000000000
H       7.389300000000000      2.741570000000000      4.441860000000000
C      12.040319999999999      0.523540000000000      1.031220000000000
C      11.965800000000000     -1.770300000000000      1.581110000000000
O      11.957810000000000     -0.440850000000000      2.062330000000000
C      11.185710000000000      1.742200000000000      1.387030000000000
C      13.364010000000000     -2.205470000000000      1.194710000000000
H      13.095660000000001      0.850560000000000      0.940870000000000
H      11.691670000000000      0.145680000000000      0.045930000000000
H      11.593660000000000     -2.429830000000000      2.390190000000000
H      11.273270000000000     -1.938080000000000      0.739900000000000
H      14.049429999999999     -2.079230000000000      2.057460000000000
H      13.339309999999999     -3.272250000000000      0.890690000000000
H      13.717449999999999     -1.592210000000000      0.341320000000000
H      10.118860000000000      1.468940000000000      1.481250000000000
H      11.508509999999999      2.188270000000000      2.349110000000000
H      11.276100000000000      2.510910000000000      0.592240000000000

-C 0
6-31g(d,p)
****
-H 0
6-31g(d,p)
****
-Mg 0
6-31g(d,p)
****
-N 0
6-31+g(d,p)
****
-Na 0
6-31g(d,p)
****
-O 0
6-31+g(d,p)
****


