%chk=lowest10_c1_a1_speciation3_speciationDFT38_rank04_E135.08.chk
%nprocshared=20
%mem=40GB
#p opt=loose PM7/gen scf=xqc 

lowest10_c1_a1_speciation3_speciationDFT38_rank04_E135.08 DFT input

0 1
Na      0.041430000000000      0.319560000000000     -0.204570000000000
C      -0.661140000000000     -1.690830000000000     -2.513680000000000
C      -0.484010000000000      0.470030000000000     -3.424270000000000
O      -0.668340000000000     -0.300890000000000     -2.257340000000000
C       0.750510000000000     -2.265820000000000     -2.435690000000000
C      -1.829670000000000      0.811140000000000     -4.050920000000000
H      -1.268990000000000     -2.175360000000000     -1.721980000000000
H      -1.146190000000000     -1.950480000000000     -3.479400000000000
H       0.019950000000000      1.416300000000000     -3.131580000000000
H       0.191960000000000     -0.015780000000000     -4.155310000000000
H      -2.463770000000000      1.349050000000000     -3.314040000000000
H      -1.675360000000000      1.461320000000000     -4.936480000000000
H      -2.352320000000000     -0.113550000000000     -4.370700000000000
H       1.206310000000000     -2.042870000000000     -1.448950000000000
H       0.704320000000000     -3.368030000000000     -2.562860000000000
H       1.392460000000000     -1.842540000000000     -3.233730000000000
C       0.543870000000000      2.378790000000000      2.186530000000000
C      -1.073240000000000      3.221380000000000      0.716110000000000
O      -0.024270000000000      2.298620000000000      0.897500000000000
C      -0.225460000000000      1.526800000000000      3.194260000000000
C      -1.718770000000000      2.948400000000000     -0.638980000000000
H       1.570600000000000      1.961620000000000      2.113900000000000
H       0.658170000000000      3.427950000000000      2.537020000000000
H      -1.859580000000000      3.105840000000000      1.492430000000000
H      -0.678120000000000      4.259930000000000      0.714400000000000
H      -2.125110000000000      1.914530000000000     -0.672620000000000
H      -2.548330000000000      3.662850000000000     -0.820730000000000
H      -0.966140000000000      3.058450000000000     -1.448260000000000
H      -0.307320000000000      0.481640000000000      2.831110000000000
H       0.315490000000000      1.523460000000000      4.163650000000000
H      -1.243010000000000      1.932410000000000      3.362500000000000
C       3.184550000000000      0.642270000000000     -0.131110000000000
C       2.733100000000000     -1.318520000000000      1.083290000000000
O       2.189890000000000     -0.197090000000000      0.419870000000000
C       3.489120000000000      0.248960000000000     -1.572920000000000
C       2.943180000000000     -1.014840000000000      2.562010000000000
H       2.785550000000000      1.679250000000000     -0.133310000000000
H       4.113760000000000      0.668220000000000      0.480700000000000
H       1.998890000000000     -2.146380000000000      0.997840000000000
H       3.670090000000000     -1.689310000000000      0.611210000000000
H       1.987270000000000     -0.694200000000000      3.027450000000000
H       3.304170000000000     -1.927490000000000      3.080210000000000
H       3.693950000000000     -0.208180000000000      2.688110000000000
H       2.563580000000000      0.290610000000000     -2.185920000000000
H       4.230830000000000      0.956320000000000     -2.000050000000000
H       3.908240000000000     -0.777290000000000     -1.616000000000000
C      -1.055700000000000     -2.260420000000000      1.795880000000000
C      -2.702850000000000     -1.067480000000000      0.618760000000000
O      -1.321130000000000     -1.221560000000000      0.876470000000000
C      -0.841010000000000     -3.584850000000000      1.071060000000000
C      -3.330840000000000     -0.075170000000000      1.590700000000000
H      -0.118560000000000     -2.001200000000000      2.331260000000000
H      -1.840510000000000     -2.355260000000000      2.578570000000000
H      -2.810000000000000     -0.657020000000000     -0.408110000000000
H      -3.253020000000000     -2.034420000000000      0.624760000000000
H      -2.807950000000000      0.899650000000000      1.530150000000000
H      -4.398250000000000      0.077700000000000      1.326850000000000
H      -3.268200000000000     -0.452960000000000      2.631260000000000
H      -0.021010000000000     -3.489560000000000      0.328740000000000
H      -0.565610000000000     -4.368390000000000      1.807520000000000
H      -1.767440000000000     -3.896060000000000      0.546730000000000
Mg      0.725270000000000     -1.397440000000000     -9.972200000000001
C      -1.972200000000000     -2.670670000000000     -8.568619999999999
C      -0.077350000000000     -4.062590000000000     -8.121250000000000
O      -0.636990000000000     -3.019540000000000     -8.889709999999999
C      -2.252750000000000     -2.442720000000000     -7.081070000000000
C      -0.730870000000000     -5.406750000000000     -8.402749999999999
H      -2.160360000000000     -1.700810000000000     -9.069599999999999
H      -2.686320000000000     -3.394130000000000     -9.011350000000000
H       0.985490000000000     -4.142450000000000     -8.419840000000001
H      -0.046790000000000     -3.820290000000000     -7.040730000000000
H      -0.170020000000000     -6.200840000000000     -7.867750000000000
H      -0.711760000000000     -5.619160000000000     -9.491759999999999
H      -1.779460000000000     -5.404160000000000     -8.046620000000001
H      -1.529390000000000     -1.730720000000000     -6.650680000000000
H      -2.213600000000000     -3.398730000000000     -6.521450000000000
H      -3.265170000000000     -2.008550000000000     -6.959890000000000
H       0.738910000000000     -2.904230000000000    -12.172610000000001
C       2.869200000000000     -2.738300000000000    -11.677800000000000
C       1.460020000000000     -2.138820000000000    -11.821970000000000
C       3.005950000000000     -3.858140000000000    -10.627000000000001
H       3.185150000000000     -3.129100000000000    -12.667280000000000
H       3.565700000000000     -1.924800000000000    -11.381790000000001
H       4.063850000000000     -4.205550000000000    -10.623370000000000
H       2.787750000000000     -3.454570000000000     -9.617789999999999
C       2.117240000000000     -5.071500000000000    -10.899940000000001
H       1.476110000000000     -1.294550000000000    -12.537660000000001
H       1.048380000000000     -4.786050000000000    -10.864910000000000
H       2.347780000000000     -5.509370000000000    -11.893079999999999
H       2.292410000000000     -5.846020000000000    -10.121090000000001
C       1.971790000000000     -1.923450000000000     -6.278410000000000
C       2.818240000000000     -1.575790000000000     -7.303460000000000
C       2.210000000000000     -0.560480000000000     -8.022640000000001
C       1.017210000000000     -0.316970000000000     -7.463910000000000
N       0.814910000000000     -1.131250000000000     -6.338880000000000
C      -0.009980000000000      0.658380000000000     -7.980620000000000
N      -0.399790000000000      0.261990000000000     -9.337610000000000
C      -1.292060000000000      1.151880000000000    -10.120360000000000
H       3.775110000000000     -2.037130000000000     -7.511980000000000
H       2.145160000000000     -2.694680000000000     -5.543190000000000
H       2.604730000000000     -0.086100000000000     -8.910000000000000
H       0.421350000000000      1.676480000000000     -7.961760000000000
H      -0.896410000000000      0.615670000000000     -7.312280000000000
C      -0.577770000000000      2.473980000000000    -10.461990000000000
C      -1.670840000000000      0.441690000000000    -11.430000000000000
C      -2.591300000000000      1.458500000000000     -9.336980000000001
H       0.343030000000000      2.277400000000000    -11.049630000000001
H      -1.245490000000000      3.134830000000000    -11.057610000000000
H      -0.302630000000000      3.035950000000000     -9.546810000000001
H      -2.221650000000000     -0.500290000000000    -11.224270000000001
H      -2.322640000000000      1.092770000000000    -12.055370000000000
H      -0.760170000000000      0.196050000000000    -12.015420000000001
H      -3.128260000000000      0.520700000000000     -9.079910000000000
H      -2.379770000000000      2.010040000000000     -8.397320000000001
H      -3.277310000000000      2.091330000000000     -9.942330000000000

-C 0
6-31g(d,p)
****
-H 0
6-31g(d,p)
****
-Mg 0
6-31g(d,p)
****
-N 0
6-31+g(d,p)
****
-Na 0
6-31g(d,p)
****
-O 0
6-31+g(d,p)
****


