%chk=lowest10_c1_a1_speciation3_speciationDFT2_rank05_E135.55.chk
%nprocshared=20
%mem=40GB
#p opt=loose PM7/gen scf=xqc 

lowest10_c1_a1_speciation3_speciationDFT2_rank05_E135.55 DFT input

0 1
Na     -0.361990000000000     -0.031370000000000      0.125550000000000
C       0.215100000000000      3.019890000000000      0.670630000000000
C      -2.004420000000000      2.550600000000000      1.283830000000000
O      -0.880670000000000      2.138280000000000      0.536640000000000
C       1.097850000000000      2.627940000000000      1.851570000000000
C      -2.915060000000000      3.414740000000000      0.422900000000000
H       0.823490000000000      2.935540000000000     -0.253570000000000
H      -0.097650000000000      4.084620000000000      0.738830000000000
H      -2.564290000000000      1.638520000000000      1.584920000000000
H      -1.731450000000000      3.071000000000000      2.228920000000000
H      -3.216830000000000      2.856520000000000     -0.489030000000000
H      -3.823670000000000      3.688380000000000      0.997550000000000
H      -2.387000000000000      4.340950000000000      0.119690000000000
H       1.439890000000000      1.577650000000000      1.744910000000000
H       1.988190000000000      3.290500000000000      1.879700000000000
H       0.545170000000000      2.733410000000000      2.807180000000000
C      -0.981740000000000     -3.087980000000000     -0.645380000000000
C      -2.750350000000000     -1.704020000000000     -1.304850000000000
O      -1.610120000000000     -1.834450000000000     -0.487430000000000
C       0.004030000000000     -3.077530000000000     -1.811960000000000
C      -3.260450000000000     -0.271540000000000     -1.188530000000000
H      -0.400080000000000     -3.278470000000000      0.281390000000000
H      -1.711590000000000     -3.922910000000000     -0.732100000000000
H      -2.511400000000000     -1.888990000000000     -2.374100000000000
H      -3.552730000000000     -2.391700000000000     -0.960930000000000
H      -2.479890000000000      0.444940000000000     -1.523840000000000
H      -4.164020000000000     -0.134540000000000     -1.818230000000000
H      -3.519550000000000     -0.044070000000000     -0.132730000000000
H       0.733230000000000     -2.250180000000000     -1.690570000000000
H       0.558400000000000     -4.038940000000000     -1.835420000000000
H      -0.524990000000000     -2.954730000000000     -2.778130000000000
C       0.191460000000000     -1.619550000000000      2.811550000000000
C       2.301520000000000     -1.354890000000000      1.815220000000000
O       0.907420000000000     -1.182980000000000      1.673930000000000
C      -0.018470000000000     -0.469900000000000      3.790610000000000
C       2.729860000000000     -2.704530000000000      1.253030000000000
H      -0.805720000000000     -1.969000000000000      2.468280000000000
H       0.669050000000000     -2.490000000000000      3.314910000000000
H       2.799880000000000     -0.556150000000000      1.227470000000000
H       2.650870000000000     -1.227480000000000      2.864460000000000
H       2.414810000000000     -2.793430000000000      0.191960000000000
H       3.834510000000000     -2.795660000000000      1.307850000000000
H       2.270270000000000     -3.528870000000000      1.835940000000000
H      -0.551690000000000      0.365880000000000      3.289550000000000
H      -0.630330000000000     -0.820980000000000      4.647950000000000
H       0.956080000000000     -0.102470000000000      4.172990000000000
C       2.479620000000000      0.230630000000000     -1.838940000000000
C       0.526100000000000      1.229090000000000     -2.675690000000000
O       1.115210000000000      0.513960000000000     -1.607570000000000
C       3.363250000000000      1.342720000000000     -1.285320000000000
C      -0.071590000000000      0.274350000000000     -3.702200000000000
H       2.722720000000000     -0.709060000000000     -1.300410000000000
H       2.705780000000000      0.037620000000000     -2.911320000000000
H      -0.297960000000000      1.844580000000000     -2.255790000000000
H       1.230340000000000      1.942840000000000     -3.158500000000000
H      -0.811060000000000     -0.391620000000000     -3.215120000000000
H      -0.584700000000000      0.856370000000000     -4.495990000000000
H       0.721020000000000     -0.346760000000000     -4.166680000000000
H       3.161590000000000      1.490410000000000     -0.203730000000000
H       4.430310000000000      1.066440000000000     -1.415780000000000
H       3.171330000000000      2.294750000000000     -1.821140000000000
Mg     -0.380750000000000     10.672430000000000      2.002680000000000
H      -2.518950000000000     10.576940000000000     -0.169930000000000
C      -0.753450000000000      9.902320000000000     -1.292350000000000
C      -1.444580000000000     10.821580000000001     -0.294700000000000
C      -0.699960000000000      8.433490000000001     -0.839960000000000
H      -1.272920000000000      9.986000000000001     -2.269270000000000
H       0.293830000000000     10.253340000000000     -1.417520000000000
H      -0.189690000000000      7.852850000000000     -1.639150000000000
H      -0.098970000000000      8.340159999999999      0.089390000000000
C      -2.075780000000000      7.816110000000000     -0.597040000000000
H      -1.333370000000000     11.886270000000000     -0.584730000000000
H      -2.577680000000000      8.303730000000000      0.264430000000000
H      -2.710390000000000      7.911830000000000     -1.502470000000000
H      -1.956310000000000      6.739670000000000     -0.354180000000000
C       1.991060000000000      8.568720000000001      2.181630000000000
C       2.591610000000000      7.948170000000000      3.266910000000000
C       1.934660000000000      8.404190000000000      4.398940000000000
C       0.954720000000000      9.263310000000001      3.961540000000000
N       1.009060000000000      9.362959999999999      2.619250000000000
C      -0.051670000000000     10.032140000000000      4.790820000000000
N      -1.077580000000000     10.632750000000000      3.913130000000000
C      -2.191070000000000     11.417040000000000      4.476320000000000
H       3.415150000000000      7.250400000000000      3.238290000000000
H       2.268410000000000      8.443650000000000      1.140050000000000
H       2.140700000000000      8.132050000000000      5.427150000000000
H       0.502470000000000     10.813829999999999      5.351500000000000
H      -0.537010000000000      9.327669999999999      5.492900000000000
C      -1.669120000000000     12.586130000000001      5.331420000000000
C      -3.032350000000000     11.984650000000000      3.317870000000000
C      -3.089450000000000     10.497010000000000      5.325870000000000
H      -1.020060000000000     13.251429999999999      4.722830000000000
H      -2.517200000000000     13.185280000000001      5.728150000000000
H      -1.087640000000000     12.216570000000001      6.200760000000000
H      -3.420180000000000     11.166729999999999      2.672950000000000
H      -3.902350000000000     12.557399999999999      3.710600000000000
H      -2.425120000000000     12.668089999999999      2.686540000000000
H      -3.473590000000000      9.658140000000000      4.704570000000000
H      -2.532770000000000     10.068849999999999      6.183700000000000
H      -3.956180000000000     11.057850000000000      5.735260000000000

-C 0
6-31g(d,p)
****
-H 0
6-31g(d,p)
****
-Mg 0
6-31g(d,p)
****
-N 0
6-31+g(d,p)
****
-Na 0
6-31g(d,p)
****
-O 0
6-31+g(d,p)
****


