%chk=lowest10_c1_a1_speciation0_speciationDFT38_rank02_E97.69.chk
%nprocshared=20
%mem=40GB
#p opt=loose PM7/gen scf=xqc 

lowest10_c1_a1_speciation0_speciationDFT38_rank02_E97.69 DFT input

0 1
Na      1.832340000000000     -0.982950000000000     -0.002020000000000
C      -1.258570000000000      0.134110000000000      1.001340000000000
C      -0.680080000000000      1.138480000000000     -1.003580000000000
O      -0.275350000000000      0.232600000000000     -0.003120000000000
C      -0.768750000000000     -0.853620000000000      2.053110000000000
C       0.419050000000000      1.209040000000000     -2.056300000000000
H      -1.417690000000000      1.117420000000000      1.499880000000000
H      -2.215690000000000     -0.253170000000000      0.584120000000000
H      -1.612920000000000      0.789250000000000     -1.501580000000000
H      -0.818890000000000      2.160390000000000     -0.582940000000000
H       0.586380000000000      0.204710000000000     -2.497810000000000
H       0.134100000000000      1.913270000000000     -2.865560000000000
H       1.367880000000000      1.556370000000000     -1.593930000000000
H       0.187050000000000     -0.496500000000000      2.493680000000000
H      -1.520130000000000     -0.957430000000000      2.863660000000000
H      -0.599010000000000     -1.849410000000000      1.589750000000000
Mg     -1.541810000000000     -6.108480000000000     -3.060960000000000
C       1.173160000000000     -6.384200000000000     -1.210760000000000
C       1.734490000000000     -5.523160000000000     -3.372130000000000
O       0.782580000000000     -6.170910000000000     -2.555980000000000
C       1.745060000000000     -5.160690000000000     -0.490720000000000
C       2.960170000000000     -6.385510000000000     -3.631410000000000
H       0.247760000000000     -6.656730000000000     -0.666390000000000
H       1.851460000000000     -7.257530000000000     -1.130330000000000
H       1.245320000000000     -5.341270000000000     -4.348170000000000
H       1.993830000000000     -4.513490000000000     -2.997230000000000
H       3.609420000000000     -5.877640000000000     -4.374300000000000
H       2.652880000000000     -7.373480000000000     -4.032510000000000
H       3.531150000000000     -6.530480000000000     -2.693640000000000
H       1.066520000000000     -4.297130000000000     -0.589120000000000
H       2.744380000000000     -4.898220000000000     -0.892260000000000
H       1.851180000000000     -5.385440000000000      0.589350000000000
H      -1.281460000000000     -8.387320000000001     -4.425560000000000
C      -2.052480000000000     -6.995460000000000     -5.934990000000000
C      -2.036190000000000     -7.580000000000000     -4.512260000000000
C      -0.747310000000000     -6.306220000000000     -6.380350000000000
H      -2.291340000000000     -7.813430000000000     -6.646010000000000
H      -2.859940000000000     -6.234230000000000     -5.989990000000000
H      -0.887700000000000     -5.931880000000000     -7.419590000000000
H      -0.549230000000000     -5.425790000000000     -5.736460000000000
C       0.469970000000000     -7.230790000000000     -6.377880000000000
H      -3.034630000000000     -7.982180000000000     -4.254040000000000
H       0.681570000000000     -7.591980000000000     -5.353210000000000
H       0.301610000000000     -8.100490000000001     -7.046060000000000
H       1.363050000000000     -6.674050000000000     -6.737920000000000
C      -0.015990000000000     -2.496810000000000     -3.417920000000000
C      -1.075580000000000     -2.936490000000000     -4.174890000000000
C      -1.964470000000000     -3.567780000000000     -3.322090000000000
C      -1.446160000000000     -3.534370000000000     -2.087290000000000
N      -0.224040000000000     -2.841330000000000     -2.072360000000000
C      -2.047950000000000     -4.187330000000000     -0.868920000000000
N      -2.155960000000000     -5.631340000000000     -1.106520000000000
C      -2.858370000000000     -6.474840000000000     -0.108090000000000
H      -1.171980000000000     -2.824760000000000     -5.247590000000000
H       0.856620000000000     -1.979730000000000     -3.787830000000000
H      -2.886330000000000     -4.052800000000000     -3.612050000000000
H      -3.036280000000000     -3.732650000000000     -0.671830000000000
H      -1.371880000000000     -4.002260000000000     -0.007020000000000
C      -4.360250000000000     -6.131650000000000     -0.065520000000000
C      -2.700240000000000     -7.950720000000000     -0.508910000000000
C      -2.248570000000000     -6.283510000000000      1.301470000000000
H      -4.823630000000000     -6.290910000000000     -1.061390000000000
H      -4.885240000000000     -6.771930000000000      0.677330000000000
H      -4.528710000000000     -5.079800000000000      0.241350000000000
H      -1.630140000000000     -8.247019999999999     -0.514730000000000
H      -3.236850000000000     -8.611990000000000      0.208620000000000
H      -3.119210000000000     -8.124940000000000     -1.522050000000000
H      -1.164960000000000     -6.527830000000000      1.299270000000000
H      -2.372070000000000     -5.240510000000000      1.660230000000000
H      -2.748110000000000     -6.947050000000000      2.041470000000000

-C 0
6-31g(d,p)
****
-H 0
6-31g(d,p)
****
-Mg 0
6-31g(d,p)
****
-N 0
6-31+g(d,p)
****
-Na 0
6-31g(d,p)
****
-O 0
6-31+g(d,p)
****


