%chk=lowest10_c1_a1_speciation3_speciationDFT0_rank02_E134.91.chk
%nprocshared=20
%mem=40GB
#p opt=loose PM7/gen scf=xqc 

lowest10_c1_a1_speciation3_speciationDFT0_rank02_E134.91 DFT input

0 1
Na      0.166850000000000      0.270150000000000      0.202670000000000
C      -1.474350000000000      2.037340000000000     -1.820050000000000
C      -0.433330000000000      3.453530000000000     -0.259610000000000
O      -0.863880000000000      2.141600000000000     -0.550260000000000
C      -0.446180000000000      1.732670000000000     -2.905340000000000
C      -1.528860000000000      4.212980000000000      0.476280000000000
H      -2.186840000000000      1.187770000000000     -1.776700000000000
H      -2.077930000000000      2.933960000000000     -2.079480000000000
H       0.452990000000000      3.378670000000000      0.407400000000000
H      -0.093980000000000      4.009520000000000     -1.161820000000000
H      -1.814590000000000      3.666150000000000      1.400270000000000
H      -1.161650000000000      5.222690000000000      0.752700000000000
H      -2.423250000000000      4.319200000000000     -0.171220000000000
H       0.115560000000000      0.808730000000000     -2.656230000000000
H      -0.969050000000000      1.580050000000000     -3.872770000000000
H       0.269070000000000      2.572820000000000     -3.016100000000000
C       1.649870000000000     -1.567120000000000      2.373260000000000
C       0.477030000000000      0.160430000000000      3.431870000000000
O       1.031720000000000     -0.307520000000000      2.224320000000000
C       0.645810000000000     -2.707130000000000      2.215180000000000
C      -0.301450000000000      1.438200000000000      3.135910000000000
H       2.393300000000000     -1.661840000000000      1.553590000000000
H       2.221730000000000     -1.651890000000000      3.323490000000000
H      -0.234880000000000     -0.573250000000000      3.867110000000000
H       1.282170000000000      0.400150000000000      4.159340000000000
H      -1.116090000000000      1.234600000000000      2.407910000000000
H      -0.749400000000000      1.839030000000000      4.068830000000000
H       0.375590000000000      2.205200000000000      2.703480000000000
H       0.104030000000000     -2.610850000000000      1.251870000000000
H       1.186120000000000     -3.675940000000000      2.221520000000000
H      -0.088400000000000     -2.709220000000000      3.045530000000000
C       3.142030000000000      0.086090000000000     -0.865580000000000
C       1.958450000000000     -1.550660000000000     -2.064580000000000
O       1.915700000000000     -0.598510000000000     -1.023180000000000
C       3.157880000000000      1.364410000000000     -1.696500000000000
C       2.361330000000000     -2.915880000000000     -1.521020000000000
H       3.234860000000000      0.368050000000000      0.205050000000000
H       4.024990000000000     -0.551010000000000     -1.096640000000000
H       0.935930000000000     -1.630520000000000     -2.488670000000000
H       2.617200000000000     -1.242940000000000     -2.907370000000000
H       1.664140000000000     -3.227310000000000     -0.714770000000000
H       2.322630000000000     -3.666340000000000     -2.337670000000000
H       3.392020000000000     -2.879980000000000     -1.112540000000000
H       2.306430000000000      2.017580000000000     -1.409530000000000
H       4.105740000000000      1.912840000000000     -1.513450000000000
H       3.085420000000000      1.126150000000000     -2.777650000000000
C      -1.828360000000000     -2.257130000000000     -1.058770000000000
C      -2.860650000000000     -0.726370000000000      0.392700000000000
O      -1.668980000000000     -1.093610000000000     -0.273870000000000
C      -2.247500000000000     -1.897370000000000     -2.479820000000000
C      -2.936800000000000     -1.380060000000000      1.767370000000000
H      -0.843750000000000     -2.767570000000000     -1.104410000000000
H      -2.533800000000000     -2.989880000000000     -0.607610000000000
H      -2.841380000000000      0.375240000000000      0.535470000000000
H      -3.774250000000000     -0.945160000000000     -0.203750000000000
H      -2.046840000000000     -1.106060000000000      2.367680000000000
H      -3.846010000000000     -1.026050000000000      2.296720000000000
H      -2.981700000000000     -2.484100000000000      1.673820000000000
H      -1.508530000000000     -1.204980000000000     -2.934690000000000
H      -2.298300000000000     -2.819990000000000     -3.094810000000000
H      -3.244480000000000     -1.411290000000000     -2.479890000000000
Mg     -0.652370000000000     -9.318659999999999      6.357470000000000
H      -2.082820000000000     -7.437110000000000      4.362440000000000
C      -0.322200000000000     -6.200620000000000      4.804030000000000
C      -1.401030000000000     -7.192650000000000      5.201280000000000
C       0.544590000000000     -6.684500000000000      3.632650000000000
H      -0.823260000000000     -5.254370000000000      4.512340000000000
H       0.327180000000000     -5.996140000000000      5.681850000000000
H      -0.088750000000000     -6.877570000000000      2.739480000000000
H       1.251840000000000     -5.865100000000000      3.390070000000000
C       1.371410000000000     -7.933560000000000      3.947870000000000
H      -1.978760000000000     -6.813500000000000      6.072420000000000
H       0.720030000000000     -8.820530000000000      4.081940000000000
H       2.060670000000000     -8.134770000000000      3.098850000000000
H       1.982950000000000     -7.781320000000000      4.862780000000000
C      -0.384170000000000    -11.798700000000000      4.390480000000000
C       0.331990000000000    -12.982310000000000      4.494020000000000
C       1.010700000000000    -12.931770000000000      5.701320000000000
C       0.698810000000000    -11.721590000000001      6.273130000000000
N      -0.155790000000000    -11.052470000000000      5.475650000000000
C       1.179270000000000    -11.162559999999999      7.594490000000000
N       0.817170000000000     -9.734380000000000      7.700430000000000
C       1.230310000000000     -8.933770000000001      8.866730000000000
H       0.353760000000000    -13.790060000000000      3.777790000000000
H      -1.033890000000000    -11.514099999999999      3.569330000000000
H       1.668380000000000    -13.687799999999999      6.113200000000000
H       0.703770000000000    -11.754640000000000      8.404529999999999
H       2.279570000000000    -11.268030000000000      7.637300000000000
C       2.766690000000000     -8.808719999999999      8.888159999999999
C       0.630690000000000     -7.521710000000000      8.737360000000001
C       0.730370000000000     -9.569350000000000     10.176330000000000
H       3.125450000000000     -8.338820000000000      7.945830000000000
H       3.100930000000000     -8.183909999999999      9.743220000000001
H       3.253020000000000     -9.799460000000000      8.990420000000000
H      -0.479530000000000     -7.561730000000000      8.730240000000000
H       0.949760000000000     -6.881500000000000      9.590230000000000
H       0.969640000000000     -7.036080000000000      7.798060000000000
H      -0.376750000000000     -9.661550000000000     10.163130000000001
H       1.171210000000000    -10.576639999999999     10.323620000000000
H       1.023610000000000     -8.944750000000001     11.047680000000000

-C 0
6-31g(d,p)
****
-H 0
6-31g(d,p)
****
-Mg 0
6-31g(d,p)
****
-N 0
6-31+g(d,p)
****
-Na 0
6-31g(d,p)
****
-O 0
6-31+g(d,p)
****


