%chk=lowest10_c1_a1_speciation0_speciationDFT37b_rank05_E82.38.chk
%nprocshared=20
%mem=40GB
#p opt=loose PM7/gen scf=xqc 

lowest10_c1_a1_speciation0_speciationDFT37b_rank05_E82.38 DFT input

0 1
Na     -0.001140000000000      2.195170000000000      0.000630000000000
C       0.578730000000000     -1.043790000000000      1.005130000000000
C      -0.579540000000000     -1.042980000000000     -1.001640000000000
O       0.001540000000000     -0.241270000000000      0.000690000000000
C       1.188330000000000     -0.123180000000000      2.055360000000000
C      -1.185770000000000     -0.123890000000000     -2.055780000000000
H      -0.192440000000000     -1.673840000000000      1.503880000000000
H       1.392960000000000     -1.679350000000000      0.588540000000000
H       0.189180000000000     -1.677360000000000     -1.498350000000000
H      -1.396590000000000     -1.673050000000000     -0.582650000000000
H      -0.396410000000000      0.522040000000000     -2.497160000000000
H      -1.654180000000000     -0.721660000000000     -2.865410000000000
H      -1.960860000000000      0.525400000000000     -1.594500000000000
H       0.401050000000000      0.526300000000000      2.495070000000000
H       1.655680000000000     -0.717710000000000      2.866320000000000
H       1.965010000000000      0.521960000000000      1.591160000000000
Mg      0.664900000000000     -6.606330000000000      3.094730000000000
C       3.075890000000000     -6.694750000000000      1.003830000000000
C       1.201940000000000     -7.940570000000000      0.214870000000000
O       2.021350000000000     -7.586890000000000      1.308820000000000
C       2.617240000000000     -5.351000000000000      0.437540000000000
C       1.921010000000000     -8.863910000000001     -0.755150000000000
H       3.571440000000000     -6.474700000000000      1.966720000000000
H       3.858100000000000     -7.173660000000000      0.382130000000000
H       0.340250000000000     -8.501569999999999      0.638320000000000
H       0.755260000000000     -7.062370000000000     -0.294960000000000
H       2.363560000000000     -9.715870000000001     -0.197240000000000
H       1.197130000000000     -9.251200000000001     -1.501520000000000
H       2.719400000000000     -8.309690000000000     -1.288020000000000
H       1.779180000000000     -4.941780000000000      1.035840000000000
H       3.463210000000000     -4.632910000000000      0.470030000000000
H       2.298410000000000     -5.461730000000000     -0.617530000000000
H      -0.871990000000000     -4.604000000000000      2.471580000000000
C      -2.169240000000000     -6.354930000000000      2.558160000000000
C      -0.896850000000000     -5.656280000000000      2.124380000000000
C      -2.253030000000000     -6.423150000000000      4.087340000000000
H      -3.022560000000000     -5.785870000000000      2.139150000000000
H      -2.179560000000000     -7.391860000000000      2.153510000000000
H      -1.450670000000000     -7.085380000000000      4.474840000000000
H      -2.113510000000000     -5.414130000000000      4.529250000000000
C      -3.608950000000000     -6.957680000000000      4.530940000000000
H      -0.766430000000000     -5.699620000000000      1.024580000000000
H      -4.407240000000000     -6.265550000000000      4.187250000000000
H      -3.792290000000000     -7.967970000000000      4.108090000000000
H      -3.645280000000000     -7.017380000000000      5.638950000000000
C      -0.133460000000000     -9.017840000000000      5.966500000000000
C       0.059690000000000     -9.440260000000000      4.672470000000000
C       1.238460000000000     -8.873210000000000      4.220800000000000
C       1.734010000000000     -8.109560000000000      5.205420000000000
N       0.928360000000000     -8.181789999999999      6.353370000000000
C       2.981710000000000     -7.264710000000000      5.135000000000000
N       2.797870000000000     -6.100360000000000      4.252830000000000
C       2.529980000000000     -4.782820000000000      4.881650000000000
H      -0.608520000000000    -10.083930000000001      4.112040000000000
H      -0.972310000000000     -9.269650000000000      6.596380000000000
H       1.661640000000000     -9.012190000000000      3.240720000000000
H       3.815310000000000     -7.885950000000000      4.744130000000000
H       3.254740000000000     -6.959900000000000      6.158450000000000
C       3.723230000000000     -4.340570000000000      5.751230000000000
C       2.360390000000000     -3.750790000000000      3.749290000000000
C       1.232470000000000     -4.793590000000000      5.717910000000000
H       4.661600000000000     -4.379960000000000      5.158390000000000
H       3.574920000000000     -3.299700000000000      6.111310000000000
H       3.842060000000000     -4.971870000000000      6.652190000000000
H       1.480770000000000     -3.997060000000000      3.119870000000000
H       2.201620000000000     -2.729830000000000      4.159710000000000
H       3.259650000000000     -3.729790000000000      3.096770000000000
H       0.348880000000000     -5.003080000000000      5.078360000000000
H       1.275650000000000     -5.553910000000000      6.520750000000000
H       1.075270000000000     -3.804900000000000      6.202690000000000

-C 0
6-31g(d,p)
****
-H 0
6-31g(d,p)
****
-Mg 0
6-31g(d,p)
****
-N 0
6-31+g(d,p)
****
-Na 0
6-31g(d,p)
****
-O 0
6-31+g(d,p)
****


