%chk=lowest10_c1_a1_speciation0_speciationDFT96_rank02_E104.57.chk
%nprocshared=20
%mem=40GB
#p opt=loose PM7/gen scf=xqc 

lowest10_c1_a1_speciation0_speciationDFT96_rank02_E104.57 DFT input

0 1
Na     -1.711330000000000     -0.766380000000000      0.916750000000000
C       0.612610000000000      0.027580000000000     -1.488290000000000
C       1.195240000000000      1.025910000000000      0.518470000000000
O       0.257330000000000      0.202990000000000     -0.136230000000000
C      -0.428240000000000     -0.872090000000000     -2.143100000000000
C       0.758860000000000      1.184770000000000      1.969790000000000
H       0.617630000000000      1.001090000000000     -2.028620000000000
H       1.602530000000000     -0.470010000000000     -1.576540000000000
H       2.206790000000000      0.559750000000000      0.511300000000000
H       1.226880000000000      2.038550000000000      0.055810000000000
H       0.716540000000000      0.190790000000000      2.465000000000000
H       1.475650000000000      1.829820000000000      2.519650000000000
H      -0.249740000000000      1.649470000000000      2.014720000000000
H      -1.432320000000000     -0.400310000000000     -2.076770000000000
H      -0.178540000000000     -1.035910000000000     -3.212220000000000
H      -0.460380000000000     -1.855780000000000     -1.626890000000000
Mg      4.896910000000000     -5.118200000000000      0.411470000000000
C       3.724620000000000     -5.048980000000000      3.715420000000000
C       3.910230000000000     -2.891260000000000      2.713450000000000
O       3.853760000000000     -4.292880000000000      2.525340000000000
C       2.399750000000000     -4.829940000000000      4.439330000000000
C       5.135970000000000     -2.428800000000000      3.497110000000000
H       3.760530000000000     -6.117390000000000      3.411100000000000
H       4.581720000000000     -4.904330000000000      4.400360000000000
H       3.999300000000000     -2.442850000000000      1.703980000000000
H       2.964000000000000     -2.487620000000000      3.127220000000000
H       6.058930000000000     -2.851330000000000      3.048750000000000
H       5.194260000000000     -1.321070000000000      3.459910000000000
H       5.062670000000000     -2.732710000000000      4.559780000000000
H       1.546800000000000     -4.997510000000000      3.751480000000000
H       2.326690000000000     -5.549850000000000      5.281380000000000
H       2.346940000000000     -3.805100000000000      4.856450000000000
H       5.994250000000000     -7.322640000000000      2.076350000000000
C       7.322330000000000     -5.707460000000000      2.742390000000000
C       6.553590000000000     -6.453260000000000      1.673340000000000
C       8.376139999999999     -6.624520000000000      3.339440000000000
H       7.804990000000000     -4.813500000000000      2.296340000000000
H       6.620100000000000     -5.369880000000000      3.529290000000000
H       7.877590000000000     -7.516580000000000      3.777550000000000
H       9.069760000000000     -6.953620000000000      2.535240000000000
C       9.164550000000000     -5.906090000000000      4.422520000000000
H       7.198340000000000     -6.734100000000000      0.814930000000000
H       9.676860000000000     -5.016910000000000      3.996830000000000
H       8.484610000000000     -5.582010000000000      5.239290000000000
H       9.924329999999999     -6.599490000000000      4.836190000000000
C       1.852180000000000     -5.828760000000000     -3.367450000000000
C       2.853590000000000     -5.383510000000000     -4.191600000000000
C       3.532440000000000     -4.370560000000000     -3.524300000000000
C       2.970050000000000     -4.216890000000000     -2.316970000000000
N       1.888570000000000     -5.099400000000000     -2.171840000000000
C       3.327390000000000     -3.216910000000000     -1.234520000000000
N       4.633630000000000     -3.393520000000000     -0.578570000000000
C       5.917470000000000     -2.933010000000000     -1.129330000000000
H       3.057450000000000     -5.765210000000000     -5.183970000000000
H       1.139280000000000     -6.612040000000000     -3.584130000000000
H       4.353060000000000     -3.812440000000000     -3.935600000000000
H       2.571360000000000     -3.356170000000000     -0.430400000000000
H       3.197930000000000     -2.185390000000000     -1.599350000000000
C       5.729560000000000     -1.703450000000000     -2.022250000000000
C       6.809280000000000     -2.539630000000000      0.064240000000000
C       6.624830000000000     -4.083280000000000     -1.874310000000000
H       5.221530000000000     -0.901780000000000     -1.442540000000000
H       6.709840000000000     -1.325520000000000     -2.375420000000000
H       5.112130000000000     -1.949600000000000     -2.905520000000000
H       6.953130000000000     -3.404980000000000      0.742210000000000
H       7.812140000000000     -2.203100000000000     -0.276990000000000
H       6.343770000000000     -1.723560000000000      0.656740000000000
H       6.844360000000000     -4.928930000000000     -1.185060000000000
H       6.018500000000000     -4.488980000000000     -2.696030000000000
H       7.589970000000000     -3.733140000000000     -2.298680000000000
C       3.129650000000000     -7.589280000000000     -0.449300000000000
C       1.775690000000000     -6.148230000000000      0.839260000000000
O       3.086330000000000     -6.598560000000000      0.559000000000000
C       4.381680000000000     -7.403800000000000     -1.309630000000000
C       1.023690000000000     -7.146660000000000      1.694320000000000
H       3.184300000000000     -8.583360000000001      0.038180000000000
H       2.249920000000000     -7.565540000000000     -1.127970000000000
H       1.853050000000000     -5.188930000000000      1.388670000000000
H       1.189790000000000     -5.909360000000000     -0.063410000000000
H       1.593120000000000     -7.350300000000000      2.624010000000000
H       0.029210000000000     -6.726430000000000      1.950180000000000
H       0.885210000000000     -8.087859999999999      1.124880000000000
H       4.371510000000000     -6.426320000000000     -1.825370000000000
H       5.300780000000000     -7.452340000000000     -0.691830000000000
H       4.430670000000000     -8.200089999999999     -2.080530000000000

-C 0
6-31g(d,p)
****
-H 0
6-31g(d,p)
****
-Mg 0
6-31g(d,p)
****
-N 0
6-31+g(d,p)
****
-Na 0
6-31g(d,p)
****
-O 0
6-31+g(d,p)
****


