%chk=lowest10_c1_a1_speciation3_speciationDFT37b_rank04_E120.38.chk
%nprocshared=20
%mem=40GB
#p opt=loose PM7/gen scf=xqc 

lowest10_c1_a1_speciation3_speciationDFT37b_rank04_E120.38 DFT input

0 1
Na     -0.299270000000000     -0.127810000000000     -0.205300000000000
C       1.792760000000000      0.271050000000000     -2.511850000000000
C      -0.164000000000000     -0.652360000000000     -3.432470000000000
O       0.589950000000000     -0.426760000000000     -2.261330000000000
C       1.586420000000000      1.781170000000000     -2.434970000000000
C       0.209590000000000     -1.994460000000000     -4.048290000000000
H       2.513100000000000     -0.014780000000000     -1.717800000000000
H       2.263310000000000     -0.020760000000000     -3.475340000000000
H      -1.236830000000000     -0.685040000000000     -3.142430000000000
H      -0.070190000000000      0.171890000000000     -4.173800000000000
H       0.056940000000000     -2.808790000000000     -3.307960000000000
H      -0.428980000000000     -2.188380000000000     -4.934550000000000
H       1.272650000000000     -1.989540000000000     -4.364810000000000
H       1.162410000000000      2.064460000000000     -1.449460000000000
H       2.565050000000000      2.290930000000000     -2.558600000000000
H       0.902350000000000      2.126110000000000     -3.236610000000000
C      -2.333000000000000     -0.722010000000000      2.187930000000000
C      -2.254900000000000     -2.543570000000000      0.716890000000000
O      -1.979550000000000     -1.173910000000000      0.898780000000000
C      -1.210230000000000     -0.961920000000000      3.195920000000000
C      -1.695990000000000     -2.966110000000000     -0.638390000000000
H      -2.485540000000000      0.375670000000000      2.115080000000000
H      -3.298790000000000     -1.147710000000000      2.538270000000000
H      -1.761880000000000     -3.167130000000000      1.493050000000000
H      -3.351960000000000     -2.720290000000000      0.715040000000000
H      -0.597440000000000     -2.801340000000000     -0.672120000000000
H      -1.900140000000000     -4.041720000000000     -0.820270000000000
H      -2.167480000000000     -2.369200000000000     -1.447720000000000
H      -0.264200000000000     -0.510150000000000      2.832850000000000
H      -1.477460000000000     -0.491880000000000      4.165510000000000
H      -1.052630000000000     -2.045940000000000      3.363950000000000
C      -2.150600000000000      2.433220000000000     -0.130050000000000
C      -0.226520000000000      3.022340000000000      1.084250000000000
O      -0.926320000000000      1.991300000000000      0.420810000000000
C      -1.962420000000000      2.893730000000000     -1.571790000000000
C      -0.594090000000000      3.052190000000000      2.563150000000000
H      -2.849210000000000      1.569240000000000     -0.132420000000000
H      -2.637560000000000      3.225030000000000      0.481730000000000
H       0.857510000000000      2.800510000000000      0.998410000000000
H      -0.374060000000000      4.019270000000000      0.612280000000000
H      -0.393550000000000      2.064060000000000      3.028620000000000
H       0.015770000000000      3.821210000000000      3.081250000000000
H      -1.668100000000000      3.299000000000000      2.689300000000000
H      -1.535790000000000      2.071290000000000     -2.184700000000000
H      -2.945870000000000      3.182360000000000     -1.999000000000000
H      -1.283220000000000      3.769810000000000     -1.614980000000000
C       2.482950000000000      0.212630000000000      1.796250000000000
C       2.273750000000000     -1.810180000000000      0.619410000000000
O       1.716340000000000     -0.536240000000000      0.876370000000000
C       3.523140000000000      1.060760000000000      1.072720000000000
C       1.728820000000000     -2.849780000000000      1.592110000000000
H       1.790400000000000      0.893560000000000      2.333680000000000
H       2.957910000000000     -0.420950000000000      2.575580000000000
H       1.971860000000000     -2.108750000000000     -0.407300000000000
H       3.386270000000000     -1.803180000000000      0.625340000000000
H       0.623170000000000     -2.884630000000000      1.531540000000000
H       2.130170000000000     -3.850660000000000      1.328310000000000
H       2.024900000000000     -2.606280000000000      2.632630000000000
H       3.031080000000000      1.723930000000000      0.330710000000000
H       4.064240000000000      1.689820000000000      1.810080000000000
H       4.255580000000000      0.413990000000000      0.548010000000000
Mg      3.309960000000000      1.118600000000000      9.655290000000001
C       2.070520000000000      0.690850000000000      6.741650000000000
C       4.217050000000000     -0.331720000000000      6.929610000000000
O       3.394660000000000      0.775230000000000      7.232530000000000
C       1.282420000000000     -0.508730000000000      7.266730000000000
C       4.589210000000000     -0.372520000000000      5.456880000000000
H       1.553110000000000      1.592120000000000      7.117640000000000
H       2.029880000000000      0.776000000000000      5.637440000000000
H       5.154770000000000     -0.193400000000000      7.510980000000000
H       3.795360000000000     -1.295510000000000      7.281940000000000
H       4.987300000000000      0.616510000000000      5.146330000000000
H       5.364910000000000     -1.148470000000000      5.292380000000000
H       3.698280000000000     -0.626440000000000      4.850480000000000
H       1.414150000000000     -0.610880000000000      8.362330000000000
H       0.203950000000000     -0.361410000000000      7.048510000000000
H       1.612210000000000     -1.440450000000000      6.766510000000000
H       2.626640000000000     -0.908390000000000     11.131910000000000
C       4.798020000000000     -0.769180000000000     11.270810000000001
C       3.508840000000000     -0.770950000000000     10.475320000000000
C       4.825050000000000      0.408570000000000     12.251650000000000
H       4.859670000000000     -1.735420000000000     11.809519999999999
H       5.662450000000000     -0.675280000000000     10.575910000000000
H       4.869760000000000      1.362800000000000     11.686080000000000
H       3.905430000000000      0.417020000000000     12.873880000000000
C       6.030280000000000      0.312130000000000     13.178440000000000
H       3.522480000000000     -1.547470000000000      9.684600000000000
H       5.956590000000000     -0.618000000000000     13.781660000000000
H       6.975560000000000      0.297650000000000     12.595929999999999
H       6.044100000000000      1.181480000000000     13.868779999999999
C       5.582250000000000      3.932730000000000     10.925820000000000
C       5.875160000000000      3.186880000000000      9.808719999999999
C       4.747840000000000      3.178080000000000      9.006060000000000
C       3.790380000000000      3.879590000000000      9.630459999999999
N       4.263800000000000      4.413250000000000     10.839729999999999
C       2.378690000000000      4.090030000000000      9.141700000000000
N       1.589930000000000      2.849030000000000      9.214240000000000
C       0.650960000000000      2.683170000000000     10.351940000000001
H       6.815720000000000      2.684420000000000      9.613849999999999
H       6.246280000000000      4.118600000000000     11.755400000000000
H       4.661060000000000      2.674660000000000      8.058590000000001
H       2.410960000000000      4.436410000000000      8.086930000000001
H       1.920860000000000      4.897640000000000      9.735970000000000
C      -0.450320000000000      3.760610000000000     10.311859999999999
C      -0.026410000000000      1.306630000000000     10.200650000000000
C       1.379550000000000      2.711960000000000     11.712619999999999
H      -0.939360000000000      3.768110000000000      9.314700000000000
H      -1.222430000000000      3.553550000000000     11.083869999999999
H      -0.055030000000000      4.772010000000000     10.524490000000000
H       0.722300000000000      0.491150000000000     10.270530000000001
H      -0.779810000000000      1.137000000000000     11.001510000000000
H      -0.537430000000000      1.225670000000000      9.217169999999999
H       2.099610000000000      1.870400000000000     11.796120000000000
H       1.928460000000000      3.661900000000000     11.856909999999999
H       0.648740000000000      2.618940000000000     12.545980000000000

-C 0
6-31g(d,p)
****
-H 0
6-31g(d,p)
****
-Mg 0
6-31g(d,p)
****
-N 0
6-31+g(d,p)
****
-Na 0
6-31g(d,p)
****
-O 0
6-31+g(d,p)
****


