%chk=lowest10_c1_a1_speciation3_speciationDFT36_rank04_E137.08.chk
%nprocshared=20
%mem=40GB
#p opt=loose PM7/gen scf=xqc 

lowest10_c1_a1_speciation3_speciationDFT36_rank04_E137.08 DFT input

0 1
Na      0.144360000000000     -0.049640000000000     -0.354270000000000
C       2.491400000000000      1.428610000000000      1.110720000000000
C       3.200170000000000      0.883300000000000     -1.064440000000000
O       2.275860000000000      0.623640000000000     -0.030430000000000
C       1.721100000000000      2.742850000000000      1.019490000000000
C       4.408880000000000     -0.034650000000000     -0.933870000000000
H       2.106250000000000      0.869310000000000      1.988150000000000
H       3.569780000000000      1.609050000000000      1.308720000000000
H       2.695790000000000      0.664550000000000     -2.030860000000000
H       3.507630000000000      1.951360000000000     -1.112180000000000
H       4.083680000000000     -1.097070000000000     -0.943290000000000
H       5.101040000000000      0.137770000000000     -1.783630000000000
H       4.946250000000000      0.169480000000000      0.014700000000000
H       0.638560000000000      2.549030000000000      0.872290000000000
H       1.852660000000000      3.308510000000000      1.964930000000000
H       2.096470000000000      3.362000000000000      0.179720000000000
C      -2.174960000000000     -1.734990000000000     -1.758380000000000
C      -0.093190000000000     -2.733860000000000     -2.155470000000000
O      -0.774410000000000     -1.564150000000000     -1.765110000000000
C      -2.663920000000000     -2.323670000000000     -0.436320000000000
C       1.403280000000000     -2.494490000000000     -1.978810000000000
H      -2.624260000000000     -0.724230000000000     -1.858230000000000
H      -2.536230000000000     -2.323710000000000     -2.629820000000000
H      -0.372270000000000     -3.601890000000000     -1.520690000000000
H      -0.289660000000000     -2.956240000000000     -3.226280000000000
H       1.635980000000000     -2.267890000000000     -0.915960000000000
H       1.975950000000000     -3.394750000000000     -2.284150000000000
H       1.727460000000000     -1.634230000000000     -2.602050000000000
H      -2.307790000000000     -1.707200000000000      0.414640000000000
H      -3.773950000000000     -2.334390000000000     -0.425350000000000
H      -2.302480000000000     -3.363250000000000     -0.306640000000000
C      -1.488440000000000      2.113620000000000     -1.978370000000000
C      -2.313910000000000      2.229810000000000      0.219520000000000
O      -1.467890000000000      1.549260000000000     -0.682730000000000
C      -0.393260000000000      3.164190000000000     -2.131060000000000
C      -3.700220000000000      1.596310000000000      0.234860000000000
H      -1.285750000000000      1.296680000000000     -2.703750000000000
H      -2.483290000000000      2.531220000000000     -2.250520000000000
H      -1.872970000000000      2.128810000000000      1.232990000000000
H      -2.372500000000000      3.322520000000000      0.017870000000000
H      -3.626710000000000      0.517210000000000      0.486770000000000
H      -4.329060000000000      2.099070000000000      0.998820000000000
H      -4.184860000000000      1.702510000000000     -0.757160000000000
H       0.601060000000000      2.715980000000000     -1.919960000000000
H      -0.394850000000000      3.551210000000000     -3.171860000000000
H      -0.566090000000000      4.010600000000000     -1.435090000000000
C      -1.037410000000000     -0.444940000000000      2.853120000000000
C       0.805130000000000     -1.768640000000000      2.237380000000000
O      -0.108600000000000     -0.765890000000000      1.838370000000000
C      -0.517430000000000      0.692020000000000      3.727890000000000
C       0.277370000000000     -3.157050000000000      1.893150000000000
H      -1.969030000000000     -0.102930000000000      2.355840000000000
H      -1.324150000000000     -1.325620000000000      3.469140000000000
H       1.747390000000000     -1.610090000000000      1.670280000000000
H       1.076220000000000     -1.700340000000000      3.314060000000000
H       0.068100000000000     -3.227120000000000      0.807490000000000
H       1.039900000000000     -3.919710000000000      2.156700000000000
H      -0.654660000000000     -3.372210000000000      2.453780000000000
H      -0.283720000000000      1.581610000000000      3.106120000000000
H      -1.293100000000000      0.971690000000000      4.471260000000000
H       0.399150000000000      0.379460000000000      4.268320000000000
Mg     -0.850680000000000      6.124590000000000      6.210460000000000
C       0.409840000000000      5.768600000000000      9.729369999999999
C      -1.895050000000000      5.819000000000000      9.790089999999999
O      -0.745560000000000      6.377770000000000      9.186410000000000
C       1.629410000000000      6.627060000000000      9.429980000000000
C      -3.146980000000000      6.402230000000000      9.148300000000001
H       0.350250000000000      5.674720000000000     10.836600000000001
H       0.561010000000000      4.764450000000000      9.282100000000000
H      -1.918920000000000      4.716100000000000      9.665509999999999
H      -1.924180000000000      6.062990000000000     10.873030000000000
H      -3.182870000000000      6.158380000000000      8.067349999999999
H      -4.049930000000000      5.978070000000000      9.636350000000000
H      -3.156850000000000      7.505210000000000      9.270949999999999
H       1.503320000000000      7.639190000000000      9.864640000000000
H       2.538820000000000      6.150480000000000      9.851150000000001
H       1.774200000000000      6.736330000000000      8.346060000000000
H      -2.836510000000000      8.501840000000000      6.944350000000000
C      -2.989270000000000      7.743090000000000      4.879380000000000
C      -2.192810000000000      8.206410000000000      6.093270000000000
C      -3.899760000000000      6.553790000000000      5.215330000000000
H      -3.598720000000000      8.600220000000000      4.529010000000000
H      -2.283560000000000      7.442350000000000      4.072920000000000
H      -3.289620000000000      5.670670000000000      5.508390000000000
H      -4.567920000000000      6.819910000000000      6.061880000000000
C      -4.768210000000000      6.181730000000000      4.015600000000000
H      -1.476880000000000      9.010740000000000      5.827880000000000
H      -5.399160000000000      7.048440000000000      3.723230000000000
H      -4.136680000000000      5.883690000000000      3.151830000000000
H      -5.435860000000000      5.334400000000000      4.279500000000000
C      -2.064480000000000      3.472630000000000      7.434110000000000
C      -1.464780000000000      2.271840000000000      7.770260000000000
C      -0.123560000000000      2.387730000000000      7.435640000000000
C       0.041470000000000      3.654280000000000      6.925750000000000
N      -1.133330000000000      4.298890000000000      6.941740000000000
C       1.307840000000000      4.289490000000000      6.380490000000000
N       1.142480000000000      5.753600000000000      6.226850000000000
C       2.079420000000000      6.500390000000000      5.363670000000000
H      -1.950380000000000      1.412020000000000      8.207700000000001
H      -3.111550000000000      3.725640000000000      7.561070000000000
H       0.647200000000000      1.639920000000000      7.559610000000000
H       2.144670000000000      4.105110000000000      7.083850000000000
H       1.515050000000000      3.799490000000000      5.409180000000000
C       1.827220000000000      6.191890000000000      3.877370000000000
C       1.859200000000000      8.010360000000000      5.589390000000000
C       3.533840000000000      6.158010000000000      5.743430000000000
H       0.795430000000000      6.485940000000000      3.587440000000000
H       2.543740000000000      6.757820000000000      3.242340000000000
H       1.964230000000000      5.116290000000000      3.657100000000000
H       2.040610000000000      8.292529999999999      6.647590000000000
H       2.551390000000000      8.608890000000001      4.956450000000000
H       0.819710000000000      8.299040000000000      5.328640000000000
H       3.708190000000000      6.369080000000000      6.821160000000000
H       3.749960000000000      5.085620000000000      5.557660000000000
H       4.251890000000000      6.759460000000000      5.147260000000000

-C 0
6-31g(d,p)
****
-H 0
6-31g(d,p)
****
-Mg 0
6-31g(d,p)
****
-N 0
6-31+g(d,p)
****
-Na 0
6-31g(d,p)
****
-O 0
6-31+g(d,p)
****


