%chk=lowest10_c1_a1_speciation3_speciationDFT38_rank01_E134.28.chk
%nprocshared=20
%mem=40GB
#p opt=loose PM7/gen scf=xqc 

lowest10_c1_a1_speciation3_speciationDFT38_rank01_E134.28 DFT input

0 1
Na     -0.184540000000000     -0.325770000000000      0.047990000000000
C       2.380390000000000     -0.746990000000000      1.808450000000000
C       0.956270000000000     -2.592920000000000      2.114210000000000
O       1.066900000000000     -1.253110000000000      1.685750000000000
C       3.199050000000000     -1.012150000000000      0.548060000000000
C       0.584810000000000     -2.644300000000000      3.590510000000000
H       2.301110000000000      0.352150000000000      1.937730000000000
H       2.902120000000000     -1.127410000000000      2.712870000000000
H       0.138880000000000     -3.068150000000000      1.529230000000000
H       1.871240000000000     -3.191050000000000      1.907270000000000
H      -0.360090000000000     -2.086430000000000      3.765100000000000
H       0.443520000000000     -3.699520000000000      3.902630000000000
H       1.389500000000000     -2.191840000000000      4.205360000000000
H       2.691400000000000     -0.583900000000000     -0.340860000000000
H       4.195300000000000     -0.532910000000000      0.651400000000000
H       3.342730000000000     -2.100800000000000      0.394030000000000
C      -2.877980000000000      0.220450000000000     -1.582870000000000
C      -3.375420000000000     -0.603270000000000      0.552870000000000
O      -2.392500000000000     -0.460160000000000     -0.446230000000000
C      -2.768880000000000      1.735390000000000     -1.420460000000000
C      -2.713720000000000     -1.203520000000000      1.789540000000000
H      -2.228530000000000     -0.070060000000000     -2.435720000000000
H      -3.909780000000000     -0.090730000000000     -1.857080000000000
H      -3.808100000000000      0.377250000000000      0.845680000000000
H      -4.175330000000000     -1.294920000000000      0.211580000000000
H      -1.905460000000000     -0.535790000000000      2.158290000000000
H      -3.461190000000000     -1.337830000000000      2.598810000000000
H      -2.270270000000000     -2.191390000000000      1.542480000000000
H      -1.726970000000000      2.021080000000000     -1.167990000000000
H      -3.050530000000000      2.229880000000000     -2.373610000000000
H      -3.447380000000000      2.099350000000000     -0.623330000000000
C       0.289330000000000     -1.791770000000000     -2.711420000000000
C       1.349590000000000      0.293810000000000     -2.929240000000000
O       0.530640000000000     -0.528640000000000     -2.125510000000000
C       1.331340000000000     -2.809030000000000     -2.258800000000000
C       0.498680000000000      1.157960000000000     -3.852300000000000
H      -0.706940000000000     -2.139580000000000     -2.363780000000000
H       0.231400000000000     -1.745870000000000     -3.819980000000000
H       1.919670000000000      0.962670000000000     -2.251600000000000
H       2.109760000000000     -0.280590000000000     -3.502920000000000
H      -0.218960000000000      1.761740000000000     -3.257440000000000
H       1.154930000000000      1.845240000000000     -4.425740000000000
H      -0.067660000000000      0.523120000000000     -4.563890000000000
H       1.330590000000000     -2.890130000000000     -1.150720000000000
H       1.088290000000000     -3.803540000000000     -2.688700000000000
H       2.343020000000000     -2.509400000000000     -2.601520000000000
C       0.908630000000000      2.939850000000000     -0.002180000000000
C      -0.026570000000000      2.173870000000000      2.012930000000000
O       0.340610000000000      1.845880000000000      0.687440000000000
C       2.423150000000000      2.965480000000000      0.174320000000000
C      -1.463780000000000      2.678590000000000      2.070920000000000
H       0.686640000000000      2.805890000000000     -1.081480000000000
H       0.455680000000000      3.914140000000000      0.286140000000000
H       0.035820000000000      1.244860000000000      2.619170000000000
H       0.670710000000000      2.900060000000000      2.486380000000000
H      -2.151060000000000      1.919340000000000      1.648390000000000
H      -1.748710000000000      2.866430000000000      3.127270000000000
H      -1.571530000000000      3.620780000000000      1.496410000000000
H       2.867050000000000      2.006030000000000     -0.164710000000000
H       2.851700000000000      3.790350000000000     -0.432370000000000
H       2.688100000000000      3.129000000000000      1.238810000000000
Mg      2.840800000000000     -2.022820000000000     -9.428570000000001
C       0.141440000000000     -3.298820000000000     -8.029710000000000
C       2.037090000000000     -4.689050000000000     -7.580360000000000
O       1.476990000000000     -3.647160000000000     -8.350220000000000
C      -0.137720000000000     -3.069850000000000     -6.543030000000000
C       1.383800000000000     -6.033450000000000     -7.860960000000000
H      -0.046590000000000     -2.328620000000000     -8.530150000000001
H      -0.572780000000000     -4.022340000000000     -8.471719999999999
H       3.099980000000000     -4.768820000000000     -7.878620000000000
H       2.067760000000000     -4.445790000000000     -6.499930000000000
H       1.944710000000000     -6.827290000000000     -7.325740000000000
H       1.402810000000000     -6.246070000000000     -8.949940000000000
H       0.335180000000000     -6.030730000000000     -7.504810000000000
H       0.589920000000000     -2.358620000000000     -6.120500000000000
H      -0.098030000000000     -4.024480000000000     -5.980840000000000
H      -1.149080000000000     -2.633750000000000     -6.419200000000000
H       2.853260000000000     -3.530340000000000    -11.630310000000000
C       4.983600000000000     -3.364610000000000    -11.135980000000000
C       3.574390000000000     -2.764950000000000    -11.279570000000000
C       5.120470000000000     -4.484500000000000    -10.085279999999999
H       5.299370000000000     -3.755390000000000    -12.125550000000000
H       5.680240000000000     -2.551190000000000    -10.840100000000000
H       6.178380000000000     -4.831920000000000    -10.081740000000000
H       4.902350000000000     -4.080940000000000     -9.076040000000001
C       4.231760000000000     -5.697870000000000    -10.358250000000000
H       3.590470000000000     -1.920860000000000    -11.995490000000000
H       3.162890000000000     -5.412450000000000    -10.323230000000001
H       4.462300000000000     -6.135720000000000    -11.351400000000000
H       4.406940000000000     -6.472400000000000     -9.579420000000001
C       4.083290000000000     -2.541650000000000     -5.725270000000000
C       4.927690000000000     -2.200880000000000     -6.755290000000000
C       4.320400000000000     -1.186680000000000     -7.475850000000000
C       3.129690000000000     -0.938220000000000     -6.914270000000000
N       2.929100000000000     -1.743490000000000     -5.781070000000000
C       2.103440000000000      0.035160000000000     -7.436150000000000
N       1.714010000000000     -0.364420000000000     -8.792930000000000
C       0.822500000000000      0.525270000000000     -9.577370000000000
H       5.882060000000000     -2.666520000000000     -6.967680000000000
H       4.257070000000000     -3.312220000000000     -4.989370000000000
H       4.713390000000000     -0.718030000000000     -8.367419999999999
H       2.535650000000000      1.052700000000000     -7.420150000000000
H       1.216930000000000     -0.005810000000000     -6.768380000000000
C       1.536850000000000      1.847320000000000     -9.919639999999999
C       0.444010000000000     -0.185050000000000    -10.887290000000000
C      -0.476970000000000      0.832320000000000     -8.794660000000000
H       2.457610000000000      1.650690000000000    -10.507350000000001
H       0.869110000000000      2.507920000000000    -10.515610000000001
H       1.811830000000000      2.409940000000000     -9.004880000000000
H      -0.107040000000000     -1.126920000000000    -10.682010000000000
H      -0.207640000000000      0.466120000000000    -11.512869999999999
H       1.354630000000000     -0.430570000000000    -11.472849999999999
H      -1.013900000000000     -0.105500000000000     -8.537590000000000
H      -0.265690000000000      1.384030000000000     -7.855010000000000
H      -1.162720000000000      1.465010000000000     -9.400390000000000

-C 0
6-31g(d,p)
****
-H 0
6-31g(d,p)
****
-Mg 0
6-31g(d,p)
****
-N 0
6-31+g(d,p)
****
-Na 0
6-31g(d,p)
****
-O 0
6-31+g(d,p)
****


