%chk=lowest10_c1_a1_speciation0_speciationDFT37b_rank08_E82.51.chk
%nprocshared=20
%mem=40GB
#p opt=loose PM7/gen scf=xqc 

lowest10_c1_a1_speciation0_speciationDFT37b_rank08_E82.51 DFT input

0 1
Na      1.832350000000000     -0.985370000000000      0.003970000000000
C      -1.258910000000000      0.133790000000000     -1.001220000000000
C      -0.680170000000000      1.138200000000000      1.003830000000000
O      -0.273530000000000      0.236040000000000      0.000740000000000
C      -0.766700000000000     -0.850340000000000     -2.055420000000000
C       0.419710000000000      1.208620000000000      2.055830000000000
H      -2.213050000000000     -0.258700000000000     -0.581980000000000
H      -1.424570000000000      1.116840000000000     -1.497900000000000
H      -0.822800000000000      2.160500000000000      0.585560000000000
H      -1.611520000000000      0.785320000000000      1.502110000000000
H       1.367410000000000      1.558510000000000      1.592820000000000
H       0.134530000000000      1.911940000000000      2.865900000000000
H       0.587900000000000      0.202910000000000      2.495810000000000
H      -0.591240000000000     -1.846120000000000     -1.593920000000000
H      -1.519390000000000     -0.956490000000000     -2.864460000000000
H       0.186620000000000     -0.488470000000000     -2.497320000000000
Mg     -0.343590000000000     -5.741760000000000      2.727950000000000
C       2.067280000000000     -5.829800000000000      0.636680000000000
C       0.193330000000000     -7.075670000000000     -0.152100000000000
O       1.012740000000000     -6.721900000000000      0.941800000000000
C       1.608700000000000     -4.486120000000000      0.070110000000000
C       0.912410000000000     -7.999060000000000     -1.122050000000000
H       2.562760000000000     -5.609620000000000      1.599600000000000
H       2.849530000000000     -6.308840000000000      0.015140000000000
H      -0.668340000000000     -7.636670000000000      0.271400000000000
H      -0.253350000000000     -6.197480000000000     -0.661970000000000
H       1.354960000000000     -8.851000000000001     -0.564090000000000
H       0.188540000000000     -8.386390000000000     -1.868400000000000
H       1.710810000000000     -7.444860000000000     -1.654930000000000
H       0.770710000000000     -4.076820000000000      0.668400000000000
H       2.454840000000000     -3.768280000000000      0.102600000000000
H       1.289710000000000     -4.596610000000000     -0.984940000000000
H      -1.880640000000000     -3.739960000000000      2.104890000000000
C      -3.177920000000000     -5.490540000000000      2.191330000000000
C      -1.905480000000000     -4.792120000000000      1.757490000000000
C      -3.261670000000000     -5.558540000000000      3.720510000000000
H      -4.031170000000000     -4.921360000000000      1.772300000000000
H      -3.188360000000000     -6.527460000000000      1.786720000000000
H      -2.459320000000000     -6.220750000000000      4.108060000000000
H      -3.122090000000000     -4.549480000000000      4.162340000000000
C      -4.617590000000000     -6.092950000000000      4.164160000000000
H      -1.775080000000000     -4.835310000000000      0.657670000000000
H      -5.415840000000000     -5.400790000000000      3.820430000000000
H      -4.800970000000000     -7.103240000000000      3.741350000000000
H      -4.653900000000000     -6.152590000000000      5.272180000000000
C      -1.142010000000000     -8.153029999999999      5.599660000000000
C      -0.948850000000000     -8.575460000000000      4.305630000000000
C       0.229920000000000     -8.008390000000000      3.853960000000000
C       0.725460000000000     -7.244690000000000      4.838580000000000
N      -0.080200000000000     -7.316950000000000      5.986520000000000
C       1.973160000000000     -6.399790000000000      4.768180000000000
N       1.789390000000000     -5.235330000000000      3.886090000000000
C       1.521570000000000     -3.917720000000000      4.514940000000000
H      -1.617060000000000     -9.219139999999999      3.745210000000000
H      -1.980870000000000     -8.404840000000000      6.229530000000000
H       0.653100000000000     -8.147370000000000      2.873880000000000
H       2.806740000000000     -7.021060000000000      4.377280000000000
H       2.246200000000000     -6.095070000000000      5.791650000000000
C       2.714780000000000     -3.475630000000000      5.384560000000000
C       1.352210000000000     -2.885570000000000      3.382460000000000
C       0.224020000000000     -3.928600000000000      5.351160000000000
H       3.653140000000000     -3.515090000000000      4.791720000000000
H       2.566480000000000     -2.434770000000000      5.744640000000000
H       2.833540000000000     -4.107020000000000      6.285470000000000
H       0.472790000000000     -3.132690000000000      2.753150000000000
H       1.193230000000000     -1.863820000000000      3.791580000000000
H       2.251550000000000     -2.865090000000000      2.730020000000000
H      -0.659540000000000     -4.138190000000000      4.711580000000000
H       0.267180000000000     -4.689000000000000      6.153940000000000
H       0.066740000000000     -2.939960000000000      5.835980000000000

-C 0
6-31g(d,p)
****
-H 0
6-31g(d,p)
****
-Mg 0
6-31g(d,p)
****
-N 0
6-31+g(d,p)
****
-Na 0
6-31g(d,p)
****
-O 0
6-31+g(d,p)
****


