%chk=lowest10_c1_a1_speciation0_speciationDFT0_rank04_E96.92.chk
%nprocshared=20
%mem=40GB
#p opt=loose PM7/gen scf=xqc 

lowest10_c1_a1_speciation0_speciationDFT0_rank04_E96.92 DFT input

0 1
Na      0.000040000000000      2.186800000000000     -0.001160000000000
C      -1.158190000000000     -1.038030000000000     -0.000640000000000
C       1.158830000000000     -1.041730000000000      0.000180000000000
O       0.001290000000000     -0.237840000000000     -0.000980000000000
C      -2.374180000000000     -0.119640000000000     -0.000340000000000
C       2.375330000000000     -0.123670000000000      0.001580000000000
H      -1.203940000000000     -1.673110000000000     -0.914510000000000
H      -1.205940000000000     -1.663620000000000      0.917430000000000
H       1.204070000000000     -1.674220000000000      0.915570000000000
H       1.204660000000000     -1.674230000000000     -0.915300000000000
H       2.362540000000000      0.523090000000000      0.905270000000000
H       3.310620000000000     -0.721470000000000      0.001420000000000
H       2.363430000000000      0.525170000000000     -0.900690000000000
H      -2.362750000000000      0.528570000000000     -0.902750000000000
H      -3.309250000000000     -0.718110000000000      0.000080000000000
H      -2.361800000000000      0.526440000000000      0.903810000000000
Mg      3.649130000000000     -5.588750000000000      0.609940000000000
H       3.907570000000000     -6.596860000000000     -2.252560000000000
C       4.479780000000000     -8.437150000000001     -1.192020000000000
C       4.454560000000000     -6.928010000000000     -1.347840000000000
C       3.081730000000000     -9.072649999999999     -1.156630000000000
H       5.039790000000000     -8.853560000000000     -2.054360000000000
H       5.026480000000000     -8.699700000000000     -0.261050000000000
H       2.525890000000000     -8.835810000000000     -2.089990000000000
H       3.229960000000000    -10.171310000000000     -1.107500000000000
C       2.237010000000000     -8.662300000000000      0.053210000000000
H       5.486760000000000     -6.513500000000000     -1.338480000000000
H       1.929400000000000     -7.599380000000000     -0.014940000000000
H       1.316990000000000     -9.286759999999999      0.079400000000000
H       2.793430000000000     -8.827460000000000      1.000400000000000
C       0.590450000000000     -4.746530000000000      0.427450000000000
C      -0.313800000000000     -4.372210000000000      1.408550000000000
C       0.360610000000000     -4.424390000000000      2.618200000000000
C       1.636910000000000     -4.845290000000000      2.328930000000000
N       1.766610000000000     -5.028220000000000      1.006140000000000
C       2.781130000000000     -5.068610000000000      3.296550000000000
N       3.883990000000000     -5.778550000000000      2.618150000000000
C       5.087670000000000     -6.187070000000000      3.365170000000000
H      -1.345560000000000     -4.087420000000000      1.261310000000000
H       0.395270000000000     -4.803160000000000     -0.636850000000000
H      -0.033970000000000     -4.194450000000000      3.598720000000000
H       3.115250000000000     -4.073650000000000      3.657380000000000
H       2.410950000000000     -5.680320000000000      4.138840000000000
C       4.706300000000000     -7.254740000000000      4.409580000000000
C       6.097250000000000     -6.807850000000000      2.382580000000000
C       5.744000000000000     -4.978670000000000      4.056520000000000
H       4.246320000000000     -8.134380000000000      3.907460000000000
H       5.600910000000000     -7.595800000000000      4.971810000000000
H       3.982240000000000     -6.858640000000000      5.149220000000000
H       6.413790000000000     -6.066540000000000      1.618110000000000
H       7.004850000000000     -7.157840000000000      2.924030000000000
H       5.651070000000000     -7.680560000000000      1.861110000000000
H       6.016350000000000     -4.205200000000000      3.306870000000000
H       5.059090000000000     -4.527200000000000      4.803370000000000
H       6.665360000000000     -5.291810000000000      4.593670000000000

-C 0
6-31g(d,p)
****
-H 0
6-31g(d,p)
****
-Mg 0
6-31g(d,p)
****
-N 0
6-31+g(d,p)
****
-Na 0
6-31g(d,p)
****
-O 0
6-31+g(d,p)
****


