%chk=lowest10_c1_a1_speciation0_speciationDFT38_rank01_E97.34.chk
%nprocshared=20
%mem=40GB
#p opt=loose PM7/gen scf=xqc 

lowest10_c1_a1_speciation0_speciationDFT38_rank01_E97.34 DFT input

0 1
Na     -0.123820000000000      1.986030000000000      0.917610000000000
C      -0.228330000000000     -1.424970000000000      0.518330000000000
C       0.351930000000000     -0.417330000000000     -1.482870000000000
O       0.008930000000000     -0.198770000000000     -0.134520000000000
C      -0.581010000000000     -1.131120000000000      1.970600000000000
C       0.601800000000000      0.931840000000000     -2.142500000000000
H      -1.089660000000000     -1.958550000000000      0.057350000000000
H       0.682450000000000     -2.066090000000000      0.508310000000000
H       1.292930000000000     -1.001390000000000     -1.556320000000000
H      -0.477080000000000     -0.923580000000000     -2.028710000000000
H       1.433910000000000      1.456690000000000     -1.625740000000000
H       0.874120000000000      0.792520000000000     -3.209920000000000
H      -0.311970000000000      1.560520000000000     -2.082050000000000
H      -1.487730000000000     -0.490420000000000      2.017980000000000
H      -0.779500000000000     -2.076070000000000      2.518280000000000
H       0.259280000000000     -0.597980000000000      2.465120000000000
Mg      0.494580000000000     -6.525500000000000     -3.525930000000000
C       3.209100000000000     -6.797760000000000     -1.674270000000000
C       3.770460000000000     -5.936230000000000     -3.835630000000000
O       2.818390000000000     -6.583570000000000     -3.019320000000000
C       3.782050000000000     -5.575270000000000     -0.953430000000000
C       4.995950000000000     -6.798660000000000     -4.095050000000000
H       2.283620000000000     -7.070010000000000     -1.129860000000000
H       3.887030000000000     -7.671370000000000     -1.594480000000000
H       3.281190000000000     -5.754180000000000     -4.811640000000000
H       4.030400000000000     -4.926840000000000     -3.460640000000000
H       5.645140000000000     -6.290660000000000     -4.837940000000000
H       4.688570000000000     -7.786550000000000     -4.496190000000000
H       5.566960000000000     -6.943560000000000     -3.157310000000000
H       3.103870000000000     -4.711670000000000     -1.049250000000000
H       4.780910000000000     -5.312190000000000     -1.355620000000000
H       3.888560000000000     -5.800770000000000      0.126350000000000
H       0.753980000000000     -8.801250000000000     -4.890140000000000
C      -0.016940000000000     -7.408460000000000     -6.399050000000000
C      -0.000860000000000     -7.994120000000000     -4.976900000000000
C       1.288310000000000     -6.719060000000000     -6.844010000000000
H      -0.255840000000000     -8.226080000000000     -7.110380000000000
H      -0.824300000000000     -6.647070000000000     -6.453610000000000
H       1.148010000000000     -6.344530000000000     -7.883200000000000
H       1.486340000000000     -5.838690000000000     -6.199970000000000
C       2.505620000000000     -7.643560000000000     -6.841530000000000
H      -0.999390000000000     -8.395720000000001     -4.718280000000000
H       2.717190000000000     -8.004750000000000     -5.816850000000000
H       2.337310000000000     -8.513240000000000     -7.509730000000000
H       3.398700000000000     -7.086780000000000     -7.201510000000000
C       2.023470000000000     -2.920170000000000     -3.887230000000000
C       0.958830000000000     -3.350570000000000     -4.642350000000000
C       0.070470000000000     -3.984020000000000     -3.789910000000000
C       0.593340000000000     -3.960150000000000     -2.557210000000000
N       1.822160000000000     -3.280820000000000     -2.545660000000000
C      -0.010050000000000     -4.607890000000000     -1.337590000000000
N      -0.121980000000000     -6.050240000000000     -1.572920000000000
C      -0.823750000000000     -6.890140000000000     -0.571950000000000
H       0.856940000000000     -3.227830000000000     -5.713090000000000
H       2.895150000000000     -2.399570000000000     -4.254380000000000
H      -0.856840000000000     -4.459460000000000     -4.077550000000000
H      -0.997300000000000     -4.150720000000000     -1.141300000000000
H       0.666630000000000     -4.424330000000000     -0.476120000000000
C      -2.325100000000000     -6.545080000000000     -0.529050000000000
C      -0.665870000000000     -8.365810000000000     -0.971450000000000
C      -0.213180000000000     -6.696530000000000      0.837270000000000
H      -2.788750000000000     -6.704170000000000     -1.524780000000000
H      -2.850410000000000     -7.184370000000000      0.214330000000000
H      -2.492170000000000     -5.492670000000000     -0.222710000000000
H       0.404540000000000     -8.661230000000000     -0.977600000000000
H      -1.202250000000000     -9.026500000000000     -0.253570000000000
H      -1.084560000000000     -8.539740000000000     -1.984770000000000
H       0.870450000000000     -6.940730000000000      0.835280000000000
H      -0.336700000000000     -5.653020000000000      1.195060000000000
H      -0.712460000000000     -7.359160000000000      1.578270000000000

-C 0
6-31g(d,p)
****
-H 0
6-31g(d,p)
****
-Mg 0
6-31g(d,p)
****
-N 0
6-31+g(d,p)
****
-Na 0
6-31g(d,p)
****
-O 0
6-31+g(d,p)
****


