%chk=lowest10_c1_a1_speciation0_speciationDFT96_rank04_E104.73.chk
%nprocshared=20
%mem=40GB
#p opt=loose PM7/gen scf=xqc 

lowest10_c1_a1_speciation0_speciationDFT96_rank04_E104.73 DFT input

0 1
Na     -1.588010000000000     -0.979210000000000     -0.917290000000000
C       1.420140000000000      0.636840000000000     -0.518340000000000
C       0.261780000000000      0.637640000000000      1.487530000000000
O       0.239720000000000      0.234480000000000      0.137590000000000
C       1.338370000000000      0.179000000000000     -1.969230000000000
C      -1.034390000000000      0.177680000000000      2.143880000000000
H       1.519880000000000      1.746110000000000     -0.513060000000000
H       2.314190000000000      0.160150000000000     -0.055760000000000
H       1.110550000000000      0.163060000000000      2.030410000000000
H       0.314650000000000      1.747020000000000      1.570250000000000
H      -1.121300000000000     -0.928370000000000      2.079960000000000
H      -1.053430000000000      0.478180000000000      3.212340000000000
H      -1.905620000000000      0.634640000000000      1.626870000000000
H       0.457020000000000      0.639440000000000     -2.464940000000000
H       2.256340000000000      0.473920000000000     -2.519570000000000
H       1.229830000000000     -0.924830000000000     -2.012720000000000
Mg      4.570440000000000     -5.568760000000000     -0.019300000000000
C       3.397960000000000     -5.499500000000000      3.284710000000000
C       3.583510000000000     -3.341720000000000      2.282780000000000
O       3.527060000000000     -4.743360000000000      2.094650000000000
C       2.073100000000000     -5.280500000000000      4.008650000000000
C       4.809260000000000     -2.879310000000000      3.066410000000000
H       3.433890000000000     -6.567910000000000      2.980390000000000
H       4.255070000000000     -5.354880000000000      3.969640000000000
H       3.672570000000000     -2.893250000000000      1.273320000000000
H       2.637270000000000     -2.938080000000000      2.696580000000000
H       5.732200000000000     -3.301870000000000      2.618030000000000
H       4.867570000000000     -1.771580000000000      3.029210000000000
H       4.735990000000000     -3.183250000000000      4.129080000000000
H       1.220140000000000     -5.448080000000000      3.320820000000000
H       2.000070000000000     -6.000430000000000      4.850700000000000
H       2.020260000000000     -4.255660000000000      4.425780000000000
H       5.667640000000000     -7.773320000000000      1.645700000000000
C       6.995710000000000     -6.158130000000000      2.311720000000000
C       6.226970000000000     -6.903930000000000      1.242670000000000
C       8.049530000000001     -7.075180000000000      2.908770000000000
H       7.478360000000000     -5.264160000000000      1.865660000000000
H       6.293480000000000     -5.820550000000000      3.098630000000000
H       7.550970000000000     -7.967240000000000      3.346890000000000
H       8.743140000000000     -7.404280000000000      2.104580000000000
C       8.837930000000000     -6.356760000000000      3.991850000000000
H       6.871730000000000     -7.184770000000000      0.384270000000000
H       9.350250000000001     -5.467580000000000      3.566170000000000
H       8.157999999999999     -6.032680000000000      4.808630000000000
H       9.597720000000001     -7.050160000000000      4.405520000000000
C       1.526420000000000     -6.279940000000000     -3.798020000000000
C       2.527590000000000     -5.834460000000000     -4.622330000000000
C       3.206460000000000     -4.821420000000000     -3.955070000000000
C       2.644270000000000     -4.667840000000000     -2.747590000000000
N       1.563100000000000     -5.550750000000000     -2.602310000000000
C       3.001260000000000     -3.667490000000000     -1.665120000000000
N       4.307320000000000     -3.843810000000000     -1.009000000000000
C       5.590920000000000     -3.383200000000000     -1.559930000000000
H       2.731120000000000     -6.215960000000000     -5.614840000000000
H       0.813410000000000     -7.063160000000000     -4.014660000000000
H       4.026790000000000     -4.263010000000000     -4.366550000000000
H       2.245490000000000     -3.807350000000000     -0.860910000000000
H       2.871080000000000     -2.635550000000000     -2.029410000000000
C       5.402580000000000     -2.153480000000000     -2.452710000000000
C       6.482760000000000     -2.989920000000000     -0.366410000000000
C       6.298260000000000     -4.533530000000000     -2.304970000000000
H       4.894190000000000     -1.351870000000000     -1.873040000000000
H       6.382780000000000     -1.775440000000000     -2.805940000000000
H       4.785170000000000     -2.399740000000000     -3.335970000000000
H       6.626600000000000     -3.855370000000000      0.311480000000000
H       7.485600000000000     -2.653430000000000     -0.707660000000000
H       6.017180000000000     -2.173930000000000      0.226140000000000
H       6.517790000000000     -5.379210000000000     -1.615740000000000
H       5.691940000000000     -4.939350000000000     -3.126630000000000
H       7.263390000000000     -4.183480000000000     -2.729400000000000
C       2.803120000000000     -8.040050000000001     -0.879890000000000
C       1.449170000000000     -6.599020000000000      0.408710000000000
O       2.759820000000000     -7.049340000000000      0.128430000000000
C       4.055150000000000     -7.854580000000000     -1.740230000000000
C       0.697140000000000     -7.597440000000000      1.263740000000000
H       2.857750000000000     -9.034140000000001     -0.392430000000000
H       1.923370000000000     -8.016320000000000     -1.558540000000000
H       1.526520000000000     -5.639740000000000      0.958120000000000
H       0.863260000000000     -6.360170000000000     -0.493960000000000
H       1.266540000000000     -7.801070000000000      2.193440000000000
H      -0.297340000000000     -7.177170000000000      1.519580000000000
H       0.558630000000000     -8.538620000000000      0.694290000000000
H       4.045030000000000     -6.877110000000000     -2.255960000000000
H       4.974250000000000     -7.903120000000000     -1.122450000000000
H       4.104100000000000     -8.650850000000000     -2.511160000000000

-C 0
6-31g(d,p)
****
-H 0
6-31g(d,p)
****
-Mg 0
6-31g(d,p)
****
-N 0
6-31+g(d,p)
****
-Na 0
6-31g(d,p)
****
-O 0
6-31+g(d,p)
****


