%chk=lowest10_c1_a1_speciation3_speciationDFT36_rank02_E136.90.chk
%nprocshared=20
%mem=40GB
#p opt=loose PM7/gen scf=xqc 

lowest10_c1_a1_speciation3_speciationDFT36_rank02_E136.90 DFT input

0 1
Na     -0.031020000000000      0.146430000000000     -0.353570000000000
C      -2.484800000000000      1.440700000000000      1.111320000000000
C      -2.366840000000000      2.326790000000000     -1.063900000000000
O      -1.679820000000000      1.656230000000000     -0.029840000000000
C      -3.238150000000000      0.116410000000000      1.019840000000000
C      -2.176410000000000      3.832540000000000     -0.933100000000000
H      -1.807800000000000      1.386840000000000      1.988710000000000
H      -3.179990000000000      2.284660000000000      1.309290000000000
H      -1.925190000000000      1.999370000000000     -2.030350000000000
H      -3.445500000000000      2.058870000000000     -1.111820000000000
H      -1.093730000000000      4.082060000000000     -0.942600000000000
H      -2.671830000000000      4.345650000000000     -1.782920000000000
H      -2.621850000000000      4.195790000000000      0.015580000000000
H      -2.528770000000000     -0.724040000000000      0.872350000000000
H      -3.795450000000000     -0.053590000000000      1.965070000000000
H      -3.961160000000000      0.132030000000000      0.179280000000000
C       2.588050000000000     -1.019570000000000     -1.758310000000000
C       2.412200000000000      1.282740000000000     -2.155280000000000
O       1.739790000000000      0.107910000000000     -1.764970000000000
C       3.342380000000000     -1.148690000000000     -0.436270000000000
C       1.456680000000000      2.459050000000000     -1.978560000000000
H       1.937380000000000     -1.914070000000000     -1.858180000000000
H       3.278510000000000     -1.038070000000000     -2.629770000000000
H       3.303470000000000      1.475030000000000     -1.520500000000000
H       2.703010000000000      1.223810000000000     -3.226110000000000
H       1.144130000000000      2.547270000000000     -0.915690000000000
H       1.950000000000000      3.405110000000000     -2.283930000000000
H       0.549600000000000      2.309660000000000     -2.601820000000000
H       2.630430000000000     -1.148490000000000      0.414680000000000
H       3.906650000000000     -2.104650000000000     -0.425310000000000
H       4.061950000000000     -0.315890000000000     -0.306580000000000
C      -1.088030000000000     -2.349270000000000     -1.978830000000000
C      -0.775570000000000     -3.122110000000000      0.218950000000000
O      -0.609350000000000     -2.049200000000000     -0.683310000000000
C      -2.545480000000000     -1.926160000000000     -2.131340000000000
C       0.466210000000000     -4.005940000000000      0.234280000000000
H      -0.481970000000000     -1.765320000000000     -2.704270000000000
H      -0.952300000000000     -3.419680000000000     -2.250900000000000
H      -0.908500000000000     -2.689690000000000      1.232410000000000
H      -1.692600000000000     -3.719240000000000      0.017380000000000
H       1.363940000000000     -3.402770000000000      0.486290000000000
H       0.345240000000000     -4.801910000000000      0.998250000000000
H       0.616470000000000     -4.478860000000000     -0.757680000000000
H      -2.654520000000000     -0.840960000000000     -1.920200000000000
H      -2.879970000000000     -2.121080000000000     -3.172090000000000
H      -3.192000000000000     -2.499070000000000     -1.435340000000000
C       0.904050000000000     -0.677070000000000      2.852580000000000
C       1.128340000000000      1.580720000000000      2.239250000000000
O       0.716470000000000      0.288560000000000      1.839130000000000
C      -0.339830000000000     -0.794870000000000      3.727030000000000
C       2.594210000000000      1.816070000000000      1.893680000000000
H       1.072880000000000     -1.654860000000000      2.354730000000000
H       1.810040000000000     -0.485570000000000      3.468800000000000
H       0.519880000000000      2.317640000000000      1.672460000000000
H       0.934320000000000      1.781340000000000      3.316330000000000
H       2.758440000000000      1.668110000000000      0.808130000000000
H       2.874480000000000      2.857270000000000      2.153860000000000
H       3.246340000000000      1.117020000000000      2.455150000000000
H      -1.226880000000000     -1.037160000000000      3.104740000000000
H      -0.193630000000000     -1.607060000000000      4.469360000000000
H      -0.526820000000000      0.155300000000000      4.267810000000000
Mg      0.138070000000000      5.683120000000000      6.365540000000000
C       1.398660000000000      5.327120000000000      9.884819999999999
C      -0.906240000000000      5.377530000000000      9.945539999999999
O       0.243260000000000      5.936280000000000      9.341850000000001
C       2.618230000000000      6.185580000000000      9.585419999999999
C      -2.158170000000000      5.960750000000000      9.303730000000000
H       1.339070000000000      5.233250000000000     10.992050000000001
H       1.549830000000000      4.322970000000000      9.437569999999999
H      -0.930100000000000      4.274620000000000      9.821009999999999
H      -0.935360000000000      5.621540000000000     11.028470000000000
H      -2.194060000000000      5.716890000000000      8.222780000000000
H      -3.061120000000000      5.536580000000000      9.791770000000000
H      -2.168040000000000      7.063720000000000      9.426380000000000
H       2.492150000000000      7.197710000000000     10.020070000000000
H       3.527640000000000      5.708990000000000     10.006589999999999
H       2.763020000000000      6.294840000000000      8.501510000000000
H      -1.847820000000000      8.060200000000000      7.099620000000000
C      -2.000450000000000      7.301420000000000      5.034530000000000
C      -1.204120000000000      7.764800000000000      6.248520000000000
C      -2.910860000000000      6.111980000000000      5.370280000000000
H      -2.609940000000000      8.158530000000001      4.684190000000000
H      -1.294650000000000      7.000760000000000      4.228130000000000
H      -2.300700000000000      5.228950000000000      5.663500000000000
H      -3.579140000000000      6.378100000000000      6.216770000000000
C      -3.779100000000000      5.739730000000000      4.170360000000000
H      -0.488160000000000      8.569150000000000      5.983230000000000
H      -4.410090000000000      6.606440000000000      3.878020000000000
H      -3.147610000000000      5.441550000000000      3.306530000000000
H      -4.446780000000000      4.892450000000000      4.434330000000000
C      -1.075790000000000      3.031420000000000      7.589670000000000
C      -0.476070000000000      1.830700000000000      7.926110000000000
C       0.865180000000000      1.946610000000000      7.591550000000000
C       1.030180000000000      3.213030000000000      7.081320000000000
N      -0.144640000000000      3.857610000000000      7.097160000000000
C       2.296520000000000      3.848100000000000      6.535800000000000
N       2.131220000000000      5.312200000000000      6.382350000000000
C       3.068100000000000      6.058940000000000      5.519130000000000
H      -0.961650000000000      0.970920000000000      8.363680000000000
H      -2.122880000000000      3.284380000000000      7.716520000000000
H       1.636000000000000      1.198870000000000      7.715780000000000
H       3.133450000000000      3.663620000000000      7.239030000000000
H       2.503510000000000      3.358120000000000      5.564370000000000
C       2.815680000000000      5.750390000000000      4.032940000000000
C       2.847970000000000      7.568900000000000      5.744820000000000
C       4.522550000000000      5.716510000000000      5.898830000000000
H       1.783880000000000      6.044400000000000      3.743020000000000
H       3.532260000000000      6.316140000000000      3.397810000000000
H       2.952430000000000      4.674790000000000      3.813010000000000
H       3.029420000000000      7.851070000000000      6.803020000000000
H       3.540170000000000      8.167380000000000      5.111850000000000
H       1.808470000000000      7.857600000000000      5.484090000000000
H       4.696960000000000      5.927580000000000      6.976550000000000
H       4.738670000000000      4.644120000000000      5.713060000000000
H       5.240610000000000      6.317940000000000      5.302640000000000

-C 0
6-31g(d,p)
****
-H 0
6-31g(d,p)
****
-Mg 0
6-31g(d,p)
****
-N 0
6-31+g(d,p)
****
-Na 0
6-31g(d,p)
****
-O 0
6-31+g(d,p)
****


