%chk=speciation3.chk
%nprocshared=16
%mem=32GB
#p opt=loose wb97xd/gen scf=xqc 

 speciation study

1 1
Na         0.90963        0.19894       -0.02005
C          0.69778        3.27241       -0.99887
C         -1.44409        2.28583       -0.58254
O         -0.02480        2.13466       -0.53997
C          0.49934        4.51595       -0.11474
C         -2.04848        2.89705       -1.87280
H          1.77465        3.02332       -0.99341
H          0.46445        3.49680       -2.06130
H         -1.88347        1.26878       -0.49805
H         -1.79315        2.87860        0.29265
H         -1.77008        2.33401       -2.77805
H         -3.15817        2.88455       -1.80693
H         -1.74831        3.95407       -2.01988
H          0.83499        4.31796        0.92419
H          1.09509        5.36365       -0.52231
H         -0.56065        4.84251       -0.09574
C          0.26010       -2.67130       -0.95987
C          0.46902       -1.22072       -2.78932
O          0.23177       -1.31273       -1.39222
C          1.55869       -3.44071       -1.23069
C          0.34043        0.21054       -3.25834
H          0.11944       -2.68301        0.13493
H         -0.61382       -3.22005       -1.38217
H          1.48783       -1.56265       -3.06395
H         -0.30028       -1.80464       -3.34270
H          1.08265        0.86431       -2.76478
H          0.49229        0.26202       -4.35799
H         -0.67294        0.55602       -3.01655
H          2.42325       -2.90542       -0.79218
H          1.48130       -4.44721       -0.76484
H          1.72080       -3.60832       -2.31590
C         -1.03628       -0.93170        2.05044
C          0.65768        0.26241        3.20515
O          0.30261       -0.44390        2.00921
C         -2.11887        0.09249        2.41805
C          0.75485       -0.65463        4.44233
H         -1.29186       -1.28392        1.03516
H         -1.10404       -1.82880        2.70349
H          1.64818        0.71382        3.09516
H          0.00044        1.12785        3.39673
H          1.50947       -1.45428        4.28505
H          1.06206       -0.05380        5.32504
H         -0.22120       -1.12142        4.68922
H         -2.03589        0.97624        1.76619
H         -3.11808       -0.36747        2.29117
H         -2.04185        0.41140        3.47978
C          3.79950        0.63679        0.95186
C          3.69511        0.45610       -1.41149
O          3.06284        0.16265       -0.17303
C          4.06280        2.13715        0.98092
C          5.04281       -0.26134       -1.59080
H          3.21365        0.36856        1.82111
H          4.73009        0.05157        1.09114
H          3.05773        0.08377       -2.23063
H          3.80291        1.54825       -1.57141
H          4.89759       -1.36089       -1.54209
H          5.47553       -0.00303       -2.57961
H          5.78655        0.04444       -0.82548
H          3.11709        2.71394        0.87430
H          4.52256        2.40249        1.95901
H          4.78354        2.43987        0.19737

-H 0
6-31g(d,p)
****
-Na 0
6-31g(d,p)
****
-C 0
6-31g(d,p)
****
-O 0
6-31+g(d,p)
****


