%chk=speciation0.chk
%nprocshared=16
%mem=32GB
#p opt=loose wb97xd/gen scf=xqc 

 speciation study

1 1
Na         1.31669       -0.43366        0.70108
C          3.85958       -1.39137        0.01655
C          3.86975        0.66778        1.05129
O          3.23286       -0.12640        0.07263
C          3.12037       -2.28122       -0.97171
C          3.13690        1.99123        1.18522
H          4.90686       -1.28215       -0.34645
H          3.85251       -1.89585        1.00987
H          3.87325        0.16929        2.04706
H          4.91464        0.89338        0.73575
H          2.09386        1.81813        1.52832
H          3.65239        2.63542        1.93032
H          3.11320        2.51923        0.20904
H          3.10917       -1.80970       -1.97704
H          3.62910       -3.26643       -1.04085
H          2.07540       -2.44313       -0.63272

-H 0
6-31g(d,p)
****
-Na 0
6-31g(d,p)
****
-C 0
6-31g(d,p)
****
-O 0
6-31+g(d,p)
****


