%chk=speciation11.chk
%nprocshared=16
%mem=32GB
#p opt=loose PM7 scf=xqc 

 speciation study

-1 1
O 0.86300 -1.24700 0.27000
C 1.94351 -1.63604 1.62150
C 2.46690 -0.63483 2.91324
C 1.85872 -2.88276 2.66474
C 3.34691 -1.92577 1.10826
H 2.03917 -0.11390 3.83078
H 1.71601 -3.87432 2.20481
H 2.68818 -3.04685 3.39907
H 1.11126 -2.63814 3.46106
H 3.38127 -0.95445 3.47218
H 1.73601 -1.05510 3.67945
H 3.39918 -2.82763 0.49698
H 3.72490 -1.01645 0.68847
H 4.08772 -2.14622 1.93997
U 1.62100 0.00000 -0.20800
O 2.91428 2.12760 -1.02355
O 2.09370 -1.33156 -2.35835
C 2.01923 -1.20915 -3.88569
C 4.35826 1.86670 -1.41054
C 4.65774 0.88444 -2.60025
C 5.02516 3.17757 -1.89198
C 5.25030 1.34793 -0.26626
C 2.70538 -2.46791 -4.36886
C 0.66449 -1.31543 -4.44092
H 4.51319 1.40477 -3.56229
H 4.21025 -0.12561 -2.54684
H 5.74308 0.63484 -2.67130
H 5.03224 3.95591 -1.11066
H 6.08519 2.99115 -2.19835
H 4.53219 3.56071 -2.80756
H 5.30174 2.03326 0.59459
H 4.96853 0.34586 0.02297
H 6.30502 1.22194 -0.61069
H 2.38765 -3.28459 -3.70707
H 2.45236 -2.75194 -5.42204
C 2.52163 -0.00415 -4.80454
H 3.78629 -2.33301 -4.26052
H 1.91616 0.94079 -4.76785
H 3.56749 0.19744 -4.79359
H 2.38316 -0.26918 -5.89051
H 0.22988 -0.30128 -4.45902
H 0.58055 -1.59486 -5.53672
H 0.12810 -2.02420 -3.85973
O -3.17515 -0.70912 -0.56520
C -4.20642 -1.82034 -0.23842
C -4.40509 -2.26221 1.24734
C -5.62006 -1.29220 -0.71099
C -4.22327 -3.18997 -0.98733
H -4.66378 -1.63405 2.11072
H -5.84362 -1.49534 -1.78250
H -6.47327 -1.76137 -0.16039
H -5.73834 -0.22748 -0.64828
H -5.26701 -2.96879 1.34243
H -3.51859 -2.79924 1.48873
H -4.30805 -3.12816 -2.08359
H -3.47735 -3.89594 -0.67326
H -5.15625 -3.75339 -0.70745
O 0.86400 1.24700 0.27000
C 1.15204 2.21486 0.11674
C 1.38764 1.06420 -1.90733
C -0.44522 3.69945 0.02096
C 2.37311 2.49104 1.14542
H 0.62230 0.50632 -2.56633
H -1.25161 4.24898 0.57092
H -0.34846 4.56351 0.70341
H -1.24488 3.02456 -0.14957
H 1.68487 1.69151 -2.84134
H 2.29540 0.60711 -2.16868
H 3.34972 1.98620 1.16139
H 2.59281 1.43848 1.44791
H 3.02957 3.31450 0.81270
U -0.63100 -1.04800 -0.03900
O -0.29980 -2.82798 1.85477
O 0.43721 -2.83061 -1.63450
C -0.42149 -3.93637 -2.14258
C -1.29722 -3.69583 2.75287
C -2.15545 -4.80632 2.04025
C -0.48572 -4.52813 3.82040
C -2.34926 -3.10783 3.83433
C -1.61570 -3.59396 -3.09206
C 0.37538 -4.96380 -2.98025
H -3.14942 -4.93201 2.54073
H -1.76487 -5.83707 2.14854
H -2.53405 -4.61776 1.06180
H -0.02954 -3.90577 4.62424
H -1.15387 -5.20547 4.41463
H 0.27098 -5.19327 3.37737
H -1.90850 -2.59500 4.72480
H -3.17953 -2.53451 3.45111
H -2.91615 -3.88492 4.38686
H -1.35615 -3.33730 -4.13636
H -2.23398 -4.49964 -3.31038
C -1.02293 -4.66844 -0.98451
H -2.28486 -2.87574 -2.63630
H -0.28267 -5.20632 -0.37035
H -1.46062 -3.84633 -0.41759
H -1.78804 -5.41829 -1.32486
H 1.20299 -5.41729 -2.40641
H -0.28931 -5.79103 -3.33076
H 0.74007 -4.51817 -3.92446
O 0.43721 2.83061 -1.63450
C 0.65374 4.38289 -2.06259
C 2.09003 4.71010 -2.47540
C -0.39082 4.70408 -3.14979
C 0.35074 5.75043 -1.16686
H 2.43521 4.10338 -3.31668
H -1.39800 4.52878 -2.69701
H -0.44444 5.78431 -3.43375
H -0.24935 4.12696 -4.06668
H 2.17436 5.77924 -2.79744
H 2.74145 4.63949 -1.57508
H -0.73374 5.90409 -0.90496
H 0.92674 5.86700 -0.25296
H 0.56258 6.71176 -1.65679
O -1.25900 0.00000 0.89900
C -1.22162 0.47607 2.39979
C 0.09144 0.50256 2.83745
C -2.01564 1.74468 3.05357
C -1.65017 -0.48699 3.49152
H 0.74993 0.85738 2.10342
H -2.85695 1.59372 3.75872
H -1.39077 2.14266 3.87483
H -2.35651 2.56458 2.39252
H 0.76553 1.29658 2.94734
H 0.31467 -0.35155 2.31258
H -2.73472 -0.60136 3.53997
H -1.01542 -1.35964 3.43367
H -1.41223 -0.13442 4.54147
U -0.63100 1.04800 -0.03900
O -0.29980 2.82798 1.85477
O -3.17524 0.70933 -0.56487
C -4.00455 1.64287 0.30173
C 0.68345 3.68376 2.81525
C 1.58378 4.87544 2.18272
C -0.07908 4.49516 3.92798
C 1.69338 2.90275 3.82796
C -3.52999 3.06413 -0.10703
C -5.57498 2.08874 0.42599
H 1.23628 5.91365 2.36125
H 1.89970 4.88365 1.14714
H 2.59601 4.86867 2.64636
H -0.63979 3.89596 4.65687
H -0.11909 5.60581 3.96316
H 0.69335 4.87319 4.61240
H 1.15536 2.27300 4.56194
H 2.52264 2.28797 3.45157
H 2.30554 3.61122 4.43926
H -4.26932 3.63786 -0.73063
H -3.31628 3.76653 0.71935
C -4.05776 0.81593 1.58556
H -2.95343 3.01575 -1.04517
H -4.88974 0.15276 1.42167
H -3.34343 0.03010 1.65484
H -4.38448 1.22919 2.54843
H -6.40773 1.40733 0.25329
H -5.75370 3.16293 0.70637
H -5.89391 2.14122 1.51049
O -0.82600 0.00000 -1.15400
C -1.66250 0.18628 -2.72990
C -3.21051 0.09903 -2.78756
C -1.41881 1.63182 -3.40621
C -1.97704 -0.70481 -4.21723
H -3.58305 1.09478 -2.54267
H -0.51269 1.83256 -4.03171
H -2.18573 1.86843 -4.19352
H -1.67014 2.44403 -2.72683
H -4.07508 0.08515 -3.45812
H -3.41837 -0.97457 -2.53014
H -1.48962 -1.25488 -5.01514
H -2.71660 -1.55421 -4.29011
H -2.50067 -0.03486 -4.99840



