%chk=speciation6.chk
%nprocshared=16
%mem=32GB
#p opt=loose PM7 scf=xqc 

 speciation study

-1 1
O 0.70300 1.24700 -0.25500
C 0.70810 1.66549 -1.87688
C -0.13359 1.74618 -3.27390
C 0.16121 3.05428 -1.66972
C 2.12649 1.47134 -2.85673
H -1.13098 2.21050 -3.38828
H -0.50470 2.96560 -0.80607
H 0.64063 3.87377 -1.20329
H -0.93280 2.87436 -1.68407
H 0.32651 2.47950 -3.98513
H -0.10334 0.87525 -3.97208
H 2.98102 0.87752 -2.49465
H 2.02816 1.03973 -3.88872
H 2.67355 2.26878 -3.36525
U 1.44600 -0.00100 0.23300
O 4.03325 -0.00192 0.64597
O 2.75641 1.68461 -0.57401
C 2.64779 2.88925 0.05164
C 5.48037 -0.55913 0.06948
C 6.41272 -2.00916 0.41818
C 5.56136 -0.46610 -1.49195
C 6.65191 0.26501 0.64095
C 3.29262 3.41950 -1.28345
C 2.30600 1.79774 1.39227
H 6.40658 -2.87529 1.13514
H 7.03413 -2.31442 -0.46573
H 5.99406 -3.04486 0.29049
H 5.56602 0.55580 -1.84879
H 6.50190 -0.93481 -1.89234
H 4.82841 -1.05309 -2.08259
H 6.64977 1.29865 0.32753
H 6.66700 0.12260 1.74925
H 7.66985 -0.11841 0.30342
H 2.50152 3.59940 -2.01884
H 3.22560 4.40539 -1.84470
C 2.57208 4.62627 0.24539
H 4.34308 3.18791 -1.45373
H 2.58177 5.24596 1.12234
H 3.54374 5.20909 0.15382
H 1.78596 5.18237 -0.28476
H 1.26385 1.43116 1.35662
H 1.49547 1.87722 2.15011
H 2.19675 0.85572 1.82610
O 0.70200 -1.24800 -0.25500
C 0.95992 -1.91055 -1.66831
C -0.26722 -2.35732 -2.31770
C 1.72427 -1.22408 -2.76173
C 1.67330 -3.29274 -1.79605
H -0.65909 -1.52152 -2.85783
H 2.75792 -1.07588 -2.47344
H 1.82300 -1.76023 -3.74195
H 1.06667 -0.51553 -3.16234
H -0.24678 -3.09096 -3.16972
H -0.78143 -2.89064 -1.50205
H 2.01712 -3.55984 -2.83232
H 0.99843 -4.16465 -1.79339
H 2.62584 -3.43325 -1.41547
O -1.36700 0.00000 -0.21600
C -2.48573 -0.42443 -1.38361
C -4.03396 -0.28604 -1.14894
C -2.48320 0.47284 -2.56193
C -2.80494 -1.94025 -1.97361
H -4.10152 -1.17136 -0.44727
H -1.70099 0.11293 -3.14634
H -3.24210 0.31141 -3.36689
H -2.60953 1.51648 -2.20055
H -4.70087 -0.19434 -2.05862
H -4.91479 -0.97996 -0.98675
H -2.47523 -2.23646 -2.98281
H -2.88950 -2.73168 -1.21903
H -3.78442 -2.14025 -2.48807
U -0.74300 -1.19900 0.24700
O 0.40127 -3.39768 1.09603
O -3.21664 -1.11512 1.10635
C -4.54441 -0.66396 1.77963
C 1.34111 -4.60292 1.29717
C 1.75445 -5.54717 -0.08905
C 1.83311 -3.81133 2.49083
C 1.76031 -5.92781 2.21083
C -3.87226 -0.51062 3.18799
C -5.54495 0.48817 0.85297
H 2.37979 -5.34738 -0.96250
H 2.41630 -6.42185 0.03703
H 0.95751 -6.15948 -0.58457
H 2.34178 -3.93614 3.42215
H 2.73185 -3.95962 1.96313
H 1.44428 -2.75048 2.74764
H 1.97573 -5.92303 3.31316
H 1.38045 -6.92751 1.96260
H 2.88999 -6.03500 1.97552
H -3.35523 -1.46773 3.41030
H -2.99262 0.15147 3.20164
C -5.76239 -1.53756 2.13588
H -4.50175 -0.39772 4.08146
H -6.29721 -1.95444 1.26265
H -5.66988 -2.20817 3.00194
H -6.51814 -0.81800 2.58640
H -5.91226 0.49959 -0.20010
H -6.55143 0.76996 1.19718
H -5.12995 1.35769 0.33717
O 2.71648 -2.13500 1.06745
C 3.90952 -2.10311 1.77378
C 3.99603 -2.64945 0.26763
C 3.69393 -0.98756 2.87580
C 4.74974 -3.04783 2.78790
H 3.79213 -2.04472 -0.67634
H 3.37780 -1.35976 3.87429
H 4.54189 -0.28387 3.02215
H 2.77901 -0.55439 2.77654
H 4.55572 -3.50951 -0.15295
H 3.70589 -3.71990 0.33648
H 4.25514 -3.30357 3.75392
H 5.49007 -3.83528 2.57465
H 5.55296 -2.37201 3.16481
O -2.05597 -3.41998 0.70282
C -1.82652 -4.69501 1.29512
C -1.21281 -5.45782 0.13088
C -1.23282 -4.49896 2.73902
C -3.04284 -5.62501 1.59219
H -0.55407 -4.80941 -0.44656
H -2.02735 -4.44582 3.51240
H -0.57350 -5.33008 3.04816
H -0.80549 -3.49499 2.92564
H -0.82911 -6.44889 0.44407
H -1.96313 -5.62831 -0.67673
H -3.72646 -5.24671 2.37267
H -3.64518 -5.90592 0.70471
H -2.61916 -6.58991 1.98897
U -0.74200 1.19900 0.24700
O 0.40375 3.39701 1.09577
O -2.05323 3.42100 0.70284
C -1.82532 4.97701 0.44484
C 1.50251 3.77430 2.54431
C 1.53272 2.84935 3.91543
C 3.34760 3.66895 2.56550
C 1.40136 5.16403 3.26355
C -0.81936 5.58700 1.49282
C -1.58671 5.38436 -1.04201
H 1.92168 1.79688 3.86315
H 2.36020 3.19230 4.63007
H 0.67742 2.87716 4.59042
H 3.95010 4.44735 3.06615
H 3.81160 2.68581 2.92144
H 4.06841 3.62301 1.69729
H 1.49184 6.06716 2.65510
H 0.55431 5.22019 3.95956
H 2.26920 5.32946 3.96184
H -0.83960 6.72749 1.51818
H 0.19566 5.53167 1.10158
C -3.02155 5.90083 0.79960
H -1.03900 5.24389 2.46735
H -3.91889 5.77187 0.16781
H -3.30188 5.97599 1.86931
H -2.76459 6.97945 0.54802
H -2.49055 5.84979 -1.50299
H -0.79074 6.18276 -1.16690
H -1.58028 4.68103 -1.84095
O -3.21569 1.11683 1.10637
C -3.77043 2.27803 2.04518
C -2.69844 2.73841 3.10865
C -4.47918 3.45124 1.21555
C -5.03992 2.14293 3.05145
H -1.64980 2.79356 2.78197
H -5.53983 3.29918 0.92836
H -4.58408 4.33895 1.86893
H -4.11545 3.65687 0.19671
H -2.98513 3.72293 3.54577
H -2.67152 2.06278 3.98881
H -6.05086 2.05679 2.62509
H -5.02932 1.48346 3.90027
H -5.20018 3.10002 3.59810

