%chk=speciation7.chk
%nprocshared=16
%mem=32GB
#p opt=loose wb97xd/gen scf=xqc 

 speciation study

2 1
Na         0.65001        0.14281       -0.29294
C          0.13450       -1.54484       -2.65241
C         -1.64538       -1.63752       -1.07378
O         -0.24465       -1.53303       -1.27752
C         -0.51930       -0.47535       -3.53374
C         -2.22497       -2.97544       -1.56058
H          1.21756       -1.35658       -2.70639
H         -0.01057       -2.55503       -3.08938
H         -1.82665       -1.58721        0.02142
H         -2.19837       -0.78581       -1.52057
H         -1.71068       -3.82963       -1.06961
H         -3.30431       -3.03357       -1.31363
H         -2.13329       -3.08846       -2.66194
H         -0.30720        0.53596       -3.12966
H         -0.09403       -0.54801       -4.55805
H         -1.61271       -0.62842       -3.62866
C         -1.51261        2.05418        0.45332
C          0.60646        2.63955        1.38899
O         -0.25636        1.59033        0.95913
C         -1.44818        3.17872       -0.59436
C          0.10281        3.33272        2.66160
H         -1.99724        1.18640       -0.02911
H         -2.18213        2.34236        1.29205
H          1.58603        2.18473        1.64097
H          0.81989        3.37511        0.58721
H         -0.00657        2.59555        3.48445
H          0.83156        4.11024        2.97813
H         -0.87157        3.83738        2.49437
H         -0.78490        2.88866       -1.43540
H         -2.46849        3.37141       -0.99042
H         -1.09885        4.13422       -0.14938
Na         0.52638       -3.59603       -0.54818
C          3.44770        0.05416       -1.31931
C          3.23100       -0.39198        1.02186
O          2.73103        0.30040       -0.11368
C          3.80168       -1.41367       -1.62117
C          4.58805        0.15182        1.48172
H          2.80939        0.42395       -2.14918
H          4.36734        0.68092       -1.35301
H          2.51846       -0.22609        1.85487
H          3.26334       -1.48797        0.86819
H          4.50478        1.23169        1.72744
H          4.91865       -0.39575        2.38898
H          5.36409        0.01702        0.70074
H          2.90796       -2.06536       -1.55795
H          4.23007       -1.48641       -2.64309
H          4.56633       -1.80140       -0.91558
C          1.73702       -5.94655        1.49292
C          2.14560       -6.27122       -0.76612
O          1.29740       -5.65904        0.18115
C          0.79619       -5.33179        2.51554
C          1.72127       -5.85377       -2.16726
H          1.71107       -7.04891        1.66196
H          2.76531       -5.55925        1.66813
H          3.20862       -5.97423       -0.61975
H          2.03427       -7.37825       -0.70935
H          1.83786       -4.75679       -2.29232
H          2.35613       -6.36867       -2.91926
H          0.66002       -6.13115       -2.34481
H         -0.23575       -5.71554        2.36918
H          1.13628       -5.60822        3.53742
H          0.79981       -4.22667        2.42102

-H 0
6-31g(d,p)
****
-Na 0
6-31g(d,p)
****
-C 0
6-31g(d,p)
****
-O 0
6-31+g(d,p)
****


