%chk=speciation10.chk
%nprocshared=16
%mem=32GB
#p opt=loose wb97xd/gen scf=xqc 

 speciation study

2 1
Na         0.23683        1.27798       -0.35940
C         -2.51040        0.57441       -1.09527
C         -2.33332        0.86533        1.21892
O         -1.66615        0.44015        0.03317
C         -1.75135        0.19105       -2.34755
C         -3.40664       -0.11843        1.70621
H         -3.37585       -0.12046       -1.03137
H         -2.85883        1.62343       -1.20932
H         -1.60419        0.98046        2.02690
H         -2.77801        1.87726        1.09046
H         -2.96526       -1.11643        1.89159
H         -3.84392        0.25072        2.65839
H         -4.24173       -0.21052        0.98211
H         -1.41686       -0.86446       -2.29122
H         -2.40662        0.31119       -3.23536
H         -0.87060        0.84365       -2.45667
C          1.73653       -0.53900        1.73450
C          2.33815       -0.77892       -0.48091
O          1.30287       -0.36888        0.39231
C          0.66742       -0.15325        2.73095
C          1.94809       -0.53491       -1.92714
H          1.98768       -1.60812        1.92480
H          2.62759        0.09699        1.94260
H          3.27087       -0.19961       -0.28708
H          2.53545       -1.86870       -0.36124
H          1.77267        0.54520       -2.09954
H          2.77412       -0.87038       -2.59002
H          1.03293       -1.10742       -2.17689
H         -0.23811       -0.77600        2.57185
H          1.03769       -0.33078        3.76319
H          0.45188        0.92842        2.62848
Na        -0.49702       -1.25550       -0.09502
C          0.00328        3.73867       -1.98566
C          2.23007        3.32931       -1.22486
O          0.83999        3.19174       -0.96619
C          0.33845        3.35948       -3.44296
C          2.68661        4.78783       -1.11156
H         -1.02665        3.38050       -1.78247
H         -0.04058        4.84353       -1.88431
H          2.77323        2.75821       -0.44294
H          2.53921        2.88382       -2.19100
H          2.42526        5.19043       -0.11046
H          3.78701        4.85060       -1.24824
H          2.21247        5.41866       -1.89263
H          0.36640        2.26274       -3.58506
H         -0.44010        3.77972       -4.11531
H          1.30690        3.78821       -3.77230
C         -2.38242       -3.44074       -0.04980
C         -0.15525       -4.14090       -0.59060
O         -1.13314       -3.11869       -0.63936
C         -2.30374       -3.95390        1.39425
C         -0.50166       -5.29983       -1.52682
H         -2.97115       -2.50113       -0.03504
H         -2.95702       -4.13375       -0.69412
H          0.79810       -3.70586       -0.95682
H          0.04780       -4.48879        0.44114
H         -0.61559       -4.92759       -2.56744
H          0.31045       -6.05597       -1.50244
H         -1.44302       -5.79735       -1.21431
H         -1.71791       -3.25138        2.02343
H         -3.33023       -4.04253        1.80595
H         -1.84821       -4.96514        1.43449

-H 0
6-31g(d,p)
****
-Na 0
6-31g(d,p)
****
-C 0
6-31g(d,p)
****
-O 0
6-31+g(d,p)
****


