%chk=lowest10_c2_a1_speciation0_speciation0_speciationDFT45_rank08_E145.12.chk
%nprocshared=20
%mem=40GB
#p opt=loose PM7/gen scf=xqc 

lowest10_c2_a1_speciation0_speciation0_speciationDFT45_rank08_E145.12 DFT input

0 1
Na      0.001050000000000      2.185810000000000      0.000670000000000
C       0.579860000000000     -1.042130000000000     -1.003170000000000
C      -0.578970000000000     -1.040390000000000      1.003390000000000
O      -0.000000000000000     -0.239280000000000     -0.000660000000000
C       1.185950000000000     -0.123160000000000     -2.057530000000000
C      -1.187730000000000     -0.121380000000000      2.055940000000000
H       1.396790000000000     -1.672600000000000     -0.584520000000000
H      -0.189060000000000     -1.676710000000000     -1.499490000000000
H      -1.395370000000000     -1.670540000000000      0.585630000000000
H       0.190760000000000     -1.673120000000000      1.500840000000000
H      -1.964200000000000      0.525120000000000      1.593100000000000
H      -1.655480000000000     -0.719030000000000      2.866110000000000
H      -0.400350000000000      0.527110000000000      2.496910000000000
H       1.960650000000000      0.526630000000000     -1.596180000000000
H       1.654750000000000     -0.720400000000000     -2.867290000000000
H       0.396420000000000      0.522660000000000     -2.498730000000000
Na      7.044980000000000    -14.541230000000001      3.321910000000000
C       5.128540000000000    -12.879400000000000      0.881420000000000
C       3.973880000000000    -12.879910000000001      2.881040000000000
O       5.157040000000000    -13.283780000000000      2.230860000000000
C       6.420600000000000    -13.332140000000001      0.217060000000000
C       4.046250000000000    -13.331899999999999      4.332760000000000
H       4.278480000000000    -13.355549999999999      0.341950000000000
H       5.072530000000000    -11.770370000000000      0.801380000000000
H       3.873340000000000    -11.770630000000001      2.870600000000000
H       3.082010000000000    -13.357740000000000      2.415290000000000
H       4.926230000000000    -12.870419999999999      4.830200000000000
H       3.125780000000000    -13.028219999999999      4.873740000000000
H       4.145390000000000    -14.437580000000001      4.381120000000000
H       6.511360000000000    -14.437860000000001      0.278390000000000
H       6.427610000000000    -13.027720000000000     -0.850390000000000
H       7.291980000000000    -12.871300000000000      0.730060000000000
Mg     -0.026990000000000     -9.008900000000001     -1.453950000000000
H      -2.418130000000000     -8.444350000000000      0.822380000000000
C      -1.109560000000000     -6.710990000000000      0.467440000000000
C      -1.374860000000000     -8.207620000000000      0.534540000000000
C      -2.038340000000000     -6.040710000000000     -0.547560000000000
H      -1.269850000000000     -6.278470000000000      1.476840000000000
H      -0.051850000000000     -6.544670000000000      0.166760000000000
H      -1.862650000000000     -6.469380000000000     -1.555230000000000
H      -3.096200000000000     -6.224420000000000     -0.261730000000000
C      -1.797380000000000     -4.536030000000000     -0.604550000000000
H      -0.650560000000000     -8.708869999999999      1.210680000000000
H      -1.966110000000000     -4.087640000000000      0.397030000000000
H      -0.758380000000000     -4.319920000000000     -0.932890000000000
H      -2.502400000000000     -4.072080000000000     -1.326200000000000
C       0.788820000000000     -6.331970000000000     -2.854350000000000
C       0.667450000000000     -5.664330000000000     -4.060890000000000
C      -0.013270000000000     -6.511110000000000     -4.912960000000000
C      -0.271060000000000     -7.651630000000000     -4.187750000000000
N       0.218290000000000     -7.542630000000000     -2.940760000000000
C      -0.978830000000000     -8.868100000000000     -4.631140000000000
N      -1.899420000000000     -9.281910000000000     -3.565150000000000
C      -3.322190000000000     -8.976089999999999     -3.726840000000000
H       1.025960000000000     -4.670860000000000     -4.288650000000000
H       1.252230000000000     -5.940690000000000     -1.957610000000000
H      -0.285150000000000     -6.318260000000000     -5.944070000000000
H      -0.190770000000000     -9.630170000000000     -4.701120000000000
H      -1.435130000000000     -8.786740000000000     -5.639390000000000
C      -3.953830000000000     -9.994680000000001     -4.691450000000000
C      -3.970260000000000     -9.123530000000001     -2.340550000000000
C      -3.545570000000000     -7.531890000000000     -4.211560000000000
H      -3.811700000000000    -11.030160000000000     -4.307550000000000
H      -5.042050000000000     -9.806110000000000     -4.801280000000000
H      -3.485240000000000     -9.936489999999999     -5.694920000000000
H      -3.508890000000000     -8.418030000000000     -1.618490000000000
H      -5.061850000000000     -8.930700000000000     -2.384180000000000
H      -3.821290000000000    -10.141019999999999     -1.940790000000000
H      -3.047210000000000     -6.820150000000000     -3.521710000000000
H      -3.138630000000000     -7.373530000000000     -5.229860000000000
H      -4.629410000000000     -7.298750000000000     -4.238280000000000
Mg     -0.794070000000000    -11.480270000000001     -3.606960000000000
H      -0.094200000000000    -13.573160000000000     -5.346790000000000
C      -0.750410000000000    -11.937780000000000     -6.664400000000000
C      -0.835100000000000    -12.749430000000000     -5.366190000000000
C       0.669380000000000    -11.430850000000000     -6.940850000000000
H      -1.053660000000000    -12.589309999999999     -7.511570000000000
H      -1.466090000000000    -11.089200000000000     -6.606250000000000
H       1.028200000000000    -10.791880000000001     -6.119230000000000
H       1.351510000000000    -12.302820000000001     -7.034000000000000
C       0.731860000000000    -10.610790000000000     -8.226390000000000
H      -1.854940000000000    -13.187530000000001     -5.306480000000000
H       0.388340000000000    -11.215389999999999     -9.091950000000001
H       0.096920000000000     -9.703130000000000     -8.136419999999999
H       1.780040000000000    -10.291230000000001     -8.409280000000001
C      -1.590700000000000    -14.969130000000000     -2.198130000000000
C      -2.727970000000000    -14.196470000000000     -2.255590000000000
C      -2.414300000000000    -12.967890000000001     -1.711880000000000
C      -1.130190000000000    -12.977740000000001     -1.351100000000000
N      -0.539500000000000    -14.227880000000001     -1.631250000000000
C      -0.393280000000000    -11.795669999999999     -0.777600000000000
N       0.291070000000000    -11.050620000000000     -1.854790000000000
C       1.759520000000000    -11.182470000000000     -1.929640000000000
H      -3.684380000000000    -14.498120000000000     -2.662580000000000
H      -1.508800000000000    -15.988899999999999     -2.546680000000000
H      -3.086320000000000    -12.134280000000000     -1.626450000000000
H       0.255690000000000    -12.104670000000000      0.066480000000000
H      -1.150040000000000    -11.111640000000000     -0.337860000000000
C       2.197820000000000    -12.651430000000000     -2.046330000000000
C       2.231780000000000    -10.433809999999999     -3.180480000000000
C       2.419870000000000    -10.513339999999999     -0.699090000000000
H       1.721560000000000    -13.122960000000001     -2.932420000000000
H       3.301120000000000    -12.711490000000000     -2.161360000000000
H       1.925660000000000    -13.227710000000000     -1.139330000000000
H       1.932080000000000     -9.369479999999999     -3.142490000000000
H       3.336530000000000    -10.470610000000001     -3.277520000000000
H       1.785450000000000    -10.895090000000000     -4.077820000000000
H       2.136200000000000     -9.441039999999999     -0.630040000000000
H       2.131950000000000    -10.998550000000000      0.254010000000000
H       3.525200000000000    -10.559070000000000     -0.778470000000000

-C 0
6-31g(d,p)
****
-H 0
6-31g(d,p)
****
-Mg 0
6-31g(d,p)
****
-N 0
6-31+g(d,p)
****
-Na 0
6-31g(d,p)
****
-O 0
6-31+g(d,p)
****


