%chk=lowest10_c2_a1_speciation3_speciation3_speciationDFT66b_rank04_E236.96.chk
%nprocshared=20
%mem=40GB
#p opt=loose PM7/gen scf=xqc 

lowest10_c2_a1_speciation3_speciation3_speciationDFT66b_rank04_E236.96 DFT input

0 1
Na      0.228150000000000     -0.305500000000000      0.031780000000000
C      -1.104960000000000     -0.958460000000000     -2.739630000000000
C       0.486300000000000     -2.622310000000000     -2.264370000000000
O       0.034030000000000     -1.315540000000000     -1.983760000000000
C      -2.392870000000000     -1.349220000000000     -2.020690000000000
C       1.530290000000000     -2.589330000000000     -3.372550000000000
H      -1.097290000000000      0.145690000000000     -2.849120000000000
H      -1.080280000000000     -1.371410000000000     -3.771190000000000
H       0.963750000000000     -3.020050000000000     -1.342430000000000
H      -0.340980000000000     -3.324490000000000     -2.510550000000000
H       2.371510000000000     -1.924010000000000     -3.082390000000000
H       1.922320000000000     -3.612560000000000     -3.545980000000000
H       1.079760000000000     -2.211770000000000     -4.313230000000000
H      -2.426240000000000     -0.890420000000000     -1.010910000000000
H      -3.263500000000000     -0.983850000000000     -2.604820000000000
H      -2.468700000000000     -2.451000000000000     -1.920840000000000
C       1.720180000000000      0.496880000000000      2.749230000000000
C       3.274750000000000     -0.205380000000000      1.145510000000000
O       1.922170000000000     -0.200710000000000      1.539460000000000
C       1.531470000000000      1.993340000000000      2.508870000000000
C       3.366870000000000     -0.839400000000000     -0.238650000000000
H       0.778730000000000      0.109620000000000      3.193300000000000
H       2.521070000000000      0.297960000000000      3.494960000000000
H       3.683570000000000      0.825040000000000      1.070920000000000
H       3.878710000000000     -0.813820000000000      1.851240000000000
H       2.768940000000000     -0.255620000000000     -0.971420000000000
H       4.422790000000000     -0.865050000000000     -0.579710000000000
H       2.973070000000000     -1.877480000000000     -0.208850000000000
H       0.714180000000000      2.164830000000000      1.778370000000000
H       1.262590000000000      2.489710000000000      3.464670000000000
H       2.463140000000000      2.454430000000000      2.124520000000000
C      -1.356780000000000     -1.891780000000000      2.264200000000000
C      -2.615240000000000      0.054750000000000      1.880870000000000
O      -1.422980000000000     -0.646600000000000      1.598950000000000
C      -1.924220000000000     -3.003940000000000      1.388820000000000
C      -2.417590000000000      0.984830000000000      3.071630000000000
H      -0.285140000000000     -2.114710000000000      2.454770000000000
H      -1.852700000000000     -1.875580000000000      3.260440000000000
H      -2.859450000000000      0.672270000000000      0.991610000000000
H      -3.487970000000000     -0.618190000000000      2.036380000000000
H      -1.574280000000000      1.680830000000000      2.877850000000000
H      -3.340850000000000      1.578390000000000      3.235740000000000
H      -2.198160000000000      0.398650000000000      3.987400000000000
H      -1.376400000000000     -3.048550000000000      0.423470000000000
H      -1.810080000000000     -3.978350000000000      1.908720000000000
H      -3.001360000000000     -2.829660000000000      1.188240000000000
C      -1.113780000000000      2.822210000000000     -0.547250000000000
C       0.757350000000000      2.224470000000000     -1.835610000000000
O      -0.164870000000000      1.818750000000000     -0.843540000000000
C      -2.346350000000000      2.680580000000000     -1.433590000000000
C       1.976770000000000      2.887070000000000     -1.205480000000000
H      -1.426790000000000      2.685090000000000      0.508840000000000
H      -0.691020000000000      3.849340000000000     -0.611620000000000
H       1.099230000000000      1.312890000000000     -2.370870000000000
H       0.299700000000000      2.883060000000000     -2.606890000000000
H       2.453200000000000      2.196250000000000     -0.482100000000000
H       2.713880000000000      3.136790000000000     -1.997030000000000
H       1.687140000000000      3.817860000000000     -0.677000000000000
H      -2.786610000000000      1.667660000000000     -1.321290000000000
H      -3.104520000000000      3.434320000000000     -1.135080000000000
H      -2.080490000000000      2.842060000000000     -2.498210000000000
Na     10.781330000000001     -1.553380000000000      1.724020000000000
C       8.637620000000000     -1.370110000000000     -0.608000000000000
C      10.717800000000000     -0.646060000000000     -1.423270000000000
O       9.921139999999999     -0.878460000000000     -0.281460000000000
C       8.637200000000000     -2.893550000000000     -0.684100000000000
C      10.575650000000000      0.802070000000000     -1.869540000000000
H       7.947680000000000     -1.066040000000000      0.206510000000000
H       8.231460000000000     -0.921330000000000     -1.541130000000000
H      11.777440000000000     -0.828230000000000     -1.140810000000000
H      10.497370000000000     -1.346060000000000     -2.260470000000000
H      10.849650000000000      1.482820000000000     -1.035380000000000
H      11.247500000000000      0.995760000000000     -2.730920000000000
H       9.528639999999999      1.006840000000000     -2.174080000000000
H       9.002960000000000     -3.325220000000000      0.270530000000000
H       7.602490000000000     -3.252650000000000     -0.864930000000000
H       9.286239999999999     -3.244940000000000     -1.512010000000000
C      12.874290000000000     -1.541840000000000      4.194010000000000
C      13.078700000000000      0.417060000000000      2.934280000000000
O      12.603120000000001     -0.909140000000000      2.962140000000000
C      11.774940000000001     -1.265200000000000      5.216790000000000
C      12.595450000000000      1.072550000000000      1.645570000000000
H      12.886939999999999     -2.635830000000000      4.002490000000000
H      13.879899999999999     -1.284590000000000      4.595210000000000
H      12.679860000000000      1.013040000000000      3.783340000000000
H      14.190170000000000      0.428760000000000      2.939030000000000
H      11.484840000000000      1.075230000000000      1.607210000000000
H      12.957039999999999      2.120470000000000      1.591810000000000
H      12.979410000000000      0.513100000000000      0.766180000000000
H      10.785580000000000     -1.549420000000000      4.803180000000000
H      11.964570000000000     -1.868460000000000      6.127510000000000
H      11.754700000000000     -0.193680000000000      5.501110000000000
C      12.220610000000001     -4.383610000000000      1.511340000000000
C      10.224650000000000     -4.818440000000000      2.666610000000000
O      11.073490000000000     -3.829350000000000      2.123480000000000
C      11.972960000000000     -4.623660000000000      0.026600000000000
C      10.566000000000001     -5.061050000000000      4.131050000000000
H      13.046510000000000     -3.647630000000000      1.612760000000000
H      12.571960000000001     -5.314280000000000      2.011800000000000
H       9.183090000000000     -4.439770000000000      2.605500000000000
H      10.239640000000000     -5.770500000000000      2.089060000000000
H      10.498790000000000     -4.109820000000000      4.699860000000000
H       9.850059999999999     -5.790160000000000      4.563860000000000
H      11.594790000000000     -5.465600000000000      4.224810000000000
H      11.682420000000000     -3.673160000000000     -0.469290000000000
H      12.901320000000000     -5.005720000000000     -0.447430000000000
H      11.164429999999999     -5.370140000000000     -0.115870000000000
C       7.927450000000000     -1.701420000000000      3.732490000000000
C       8.448070000000000      0.387520000000000      2.799840000000000
O       8.810359999999999     -0.975660000000000      2.901770000000000
C       6.791310000000000     -2.301830000000000      2.913070000000000
C       9.142270000000000      1.211560000000000      3.877760000000000
H       8.503880000000001     -2.530530000000000      4.193460000000000
H       7.530910000000000     -1.095340000000000      4.578030000000000
H       8.788220000000001      0.754500000000000      1.808010000000000
H       7.346360000000000      0.546360000000000      2.826260000000000
H      10.240570000000000      1.084780000000000      3.802070000000000
H       8.896190000000001      2.285290000000000      3.741550000000000
H       8.811859999999999      0.891990000000000      4.886930000000000
H       7.199880000000000     -2.943380000000000      2.104640000000000
H       6.146050000000000     -2.920500000000000      3.570980000000000
H       6.176560000000000     -1.498880000000000      2.458890000000000
Mg      8.951610000000001      0.607630000000000     12.715000000000000
C       8.867260000000000     -1.802010000000000     14.038779999999999
C       8.273170000000000     -3.998240000000000     13.516769999999999
O       8.804850000000000     -2.787310000000000     13.025630000000000
C      10.004759999999999     -2.010790000000000     15.013249999999999
C       7.612470000000000     -4.754610000000000     12.370160000000000
H       6.750640000000000     -1.561850000000000     12.660869999999999
H       7.897540000000000     -1.616120000000000     14.548610000000000
H       9.099890000000000     -4.617030000000000     13.923790000000000
H       7.495210000000000     -3.845250000000000     14.298140000000000
H       8.345480000000000     -4.939420000000000     11.556319999999999
H       7.229250000000000     -5.729490000000000     12.738210000000000
H       6.760590000000000     -4.172750000000000     11.959510000000000
H      10.951280000000001     -2.147600000000000     14.459420000000000
H      10.081300000000001     -1.111990000000000     15.659319999999999
H       9.804539999999999     -2.901350000000000     15.640180000000001
H       8.270130000000000      2.510030000000000     14.531330000000001
C      10.324630000000001      3.139760000000000     14.200770000000000
C       9.260400000000001      2.042170000000000     14.364830000000000
C      10.090120000000001      4.020240000000000     12.967910000000000
H      10.310600000000001      3.779670000000000     15.110340000000001
H      11.319810000000000      2.670530000000000     14.140010000000000
H      10.108390000000000      3.392430000000000     12.055080000000000
H       9.101610000000001      4.514390000000000     13.051259999999999
C      11.147620000000000      5.117700000000000     12.834580000000001
H       9.519729999999999      1.438900000000000     15.260680000000001
H      11.128840000000000      5.783160000000000     13.723780000000000
H      12.163280000000000      4.684380000000000     12.725840000000000
H      10.933389999999999      5.732450000000000     11.933970000000000
C       7.011830000000000      2.474060000000000     11.544879999999999
C       5.859640000000000      2.712160000000000     10.841040000000000
C       5.355860000000000      1.483610000000000     10.490230000000000
C       6.219990000000000      0.540430000000000     11.008100000000001
N       7.244980000000000      1.158260000000000     11.650639999999999
C       5.988980000000000     -0.939290000000000     10.871750000000000
N       5.846010000000000     -1.623140000000000     12.165310000000000
C       4.742260000000000     -1.252160000000000     13.089589999999999
H       5.437970000000000      3.679090000000000     10.615520000000000
H       7.650070000000000      3.224410000000000     11.968999999999999
H       4.450270000000000      1.295180000000000      9.932060000000000
H       5.090260000000000     -1.137310000000000     10.250880000000000
H       6.832340000000000     -1.395610000000000     10.316549999999999
C       3.391070000000000     -1.165180000000000     12.353249999999999
C       4.641200000000000     -2.361830000000000     14.154500000000001
C       5.030590000000000      0.075360000000000     13.831270000000000
H       3.170880000000000     -2.122870000000000     11.834530000000001
H       2.569660000000000     -0.952250000000000     13.070330000000000
H       3.394730000000000     -0.347610000000000     11.604509999999999
H       5.590970000000000     -2.447980000000000     14.722390000000001
H       3.830470000000000     -2.139570000000000     14.882360000000000
H       4.428930000000000     -3.343960000000000     13.680660000000000
H       6.017790000000000      0.033280000000000     14.340550000000000
H       5.016660000000000      0.950120000000000     13.161560000000000
H       4.252270000000000      0.270310000000000     14.597980000000000
Mg     11.632529999999999      2.048200000000000     10.873130000000000
H      11.321099999999999      4.421810000000000      9.713340000000001
C      10.502200000000000      3.089610000000000      8.222149999999999
C      11.571090000000000      3.454160000000000      9.228660000000000
C       9.181039999999999      2.842860000000000      8.943989999999999
H      10.397589999999999      3.909910000000000      7.479770000000000
H      10.812650000000000      2.171400000000000      7.685560000000000
H       9.326100000000000      2.056360000000000      9.710690000000000
H       8.847340000000001      3.766870000000000      9.463900000000001
C       8.114260000000000      2.387560000000000      7.957580000000000
H      12.559650000000000      3.554080000000000      8.732550000000000
H       7.933710000000000      3.178530000000000      7.200720000000000
H       8.435810000000000      1.453110000000000      7.449980000000000
H       7.168710000000000      2.183330000000000      8.492030000000000
C      15.318669999999999      0.950710000000000     11.204780000000000
C      14.990019999999999      2.109080000000000     11.878790000000000
C      13.802000000000000      1.866490000000000     12.531230000000001
C      13.454170000000000      0.621900000000000     12.223640000000000
N      14.419850000000000      0.044900000000000     11.391550000000001
C      12.158550000000000     -0.035770000000000     12.614810000000000
N      11.188800000000001      0.091180000000000     11.516450000000001
C      11.099560000000000     -0.953790000000000     10.465909999999999
H      15.526809999999999      3.050610000000000     11.858020000000000
H      16.186509999999998      0.798830000000000     10.587389999999999
H      13.242120000000000      2.573880000000000     13.114750000000001
H      11.730330000000000      0.539060000000000     13.459220000000000
H      12.302790000000000     -1.054540000000000     13.012879999999999
C      11.575070000000000     -2.345020000000000     10.944200000000000
C       9.619410000000000     -1.088410000000000     10.064909999999999
C      11.899440000000000     -0.529020000000000      9.233590000000000
H      11.006370000000000     -2.668880000000000     11.839259999999999
H      11.417550000000000     -3.105990000000000     10.150080000000001
H      12.656599999999999     -2.338110000000000     11.189159999999999
H       9.201090000000001     -0.130460000000000      9.707240000000001
H       9.486219999999999     -1.837550000000000      9.254300000000001
H       9.019819999999999     -1.411460000000000     10.937300000000000
H      11.515470000000001      0.431290000000000      8.849640000000001
H      12.969360000000000     -0.407460000000000      9.467590000000000
H      11.805260000000001     -1.289600000000000      8.432110000000000

-C 0
6-31g(d,p)
****
-H 0
6-31g(d,p)
****
-Mg 0
6-31g(d,p)
****
-N 0
6-31+g(d,p)
****
-Na 0
6-31g(d,p)
****
-O 0
6-31+g(d,p)
****


