%chk=lowest10_c2_a1_speciation0_speciation3_speciationDFT133_rank06_E208.40.chk
%nprocshared=20
%mem=40GB
#p opt=loose PM7/gen scf=xqc 

lowest10_c2_a1_speciation0_speciation3_speciationDFT133_rank06_E208.40 DFT input

0 1
Na     -0.291940000000000      0.037280000000000     -0.243170000000000
C       1.624850000000000      2.298130000000000     -1.269600000000000
C      -0.268660000000000      2.240750000000000     -2.663260000000000
O       0.514600000000000      1.547000000000000     -1.716600000000000
C       1.268000000000000      3.152620000000000     -0.056330000000000
C       0.213160000000000      1.930940000000000     -4.074830000000000
H       2.408880000000000      1.577140000000000     -0.958870000000000
H       2.075350000000000      2.915620000000000     -2.076080000000000
H      -1.316110000000000      1.881600000000000     -2.562890000000000
H      -0.299970000000000      3.337390000000000     -2.478960000000000
H       0.184480000000000      0.835020000000000     -4.255670000000000
H      -0.445020000000000      2.435100000000000     -4.812070000000000
H       1.252460000000000      2.292290000000000     -4.214570000000000
H       0.866180000000000      2.517970000000000      0.760380000000000
H       2.181720000000000      3.665120000000000      0.311700000000000
H       0.513710000000000      3.920130000000000     -0.323600000000000
C      -2.130470000000000     -2.402200000000000      0.684990000000000
C      -1.935870000000000     -2.376110000000000     -1.649760000000000
O      -1.796800000000000     -1.641570000000000     -0.455600000000000
C      -0.940580000000000     -3.219860000000000      1.183650000000000
C      -1.405030000000000     -1.522900000000000     -2.797930000000000
H      -2.398300000000000     -1.681990000000000      1.486910000000000
H      -3.028600000000000     -3.037950000000000      0.524710000000000
H      -1.341820000000000     -3.314670000000000     -1.625450000000000
H      -3.007030000000000     -2.599060000000000     -1.843620000000000
H      -0.332760000000000     -1.279900000000000     -2.635730000000000
H      -1.504840000000000     -2.066820000000000     -3.760130000000000
H      -1.976300000000000     -0.572530000000000     -2.861880000000000
H      -0.065350000000000     -2.560410000000000      1.356270000000000
H      -1.206740000000000     -3.713800000000000      2.141620000000000
H      -0.663480000000000     -4.002100000000000      0.450350000000000
C      -2.395590000000000      1.370250000000000      1.701240000000000
C      -0.484530000000000      0.989410000000000      3.015800000000000
O      -1.105590000000000      0.796110000000000      1.762910000000000
C      -2.330190000000000      2.798430000000000      1.169690000000000
C      -0.779540000000000     -0.181620000000000      3.945910000000000
H      -2.998610000000000      0.765360000000000      0.990580000000000
H      -2.931510000000000      1.330880000000000      2.675620000000000
H       0.611070000000000      1.030580000000000      2.843510000000000
H      -0.757310000000000      1.958690000000000      3.489310000000000
H      -0.455060000000000     -1.135080000000000      3.478060000000000
H      -0.227490000000000     -0.045990000000000      4.899160000000000
H      -1.865600000000000     -0.238240000000000      4.163760000000000
H      -1.851560000000000      2.813710000000000      0.167290000000000
H      -3.358940000000000      3.206350000000000      1.078510000000000
H      -1.749860000000000      3.444500000000000      1.859940000000000
C       2.533190000000000     -1.019120000000000      1.409860000000000
C       2.477240000000000     -1.376550000000000     -0.912520000000000
O       1.803830000000000     -0.847340000000000      0.212590000000000
C       3.441830000000000      0.178100000000000      1.669760000000000
C       2.094410000000000     -2.834700000000000     -1.142150000000000
H       1.799950000000000     -1.085210000000000      2.240550000000000
H       3.108660000000000     -1.970770000000000      1.431440000000000
H       2.155670000000000     -0.792860000000000     -1.801690000000000
H       3.581550000000000     -1.258850000000000     -0.848170000000000
H       0.996880000000000     -2.925410000000000     -1.262750000000000
H       2.584280000000000     -3.205770000000000     -2.066700000000000
H       2.415750000000000     -3.464350000000000     -0.287850000000000
H       2.847480000000000      1.115460000000000      1.696970000000000
H       3.949710000000000      0.050560000000000      2.648560000000000
H       4.211420000000000      0.262410000000000      0.875670000000000
Na     -5.576440000000000    -17.472320000000000     -1.096990000000000
C      -2.121530000000000    -16.810449999999999     -1.095900000000000
C      -3.278970000000000    -14.812130000000000     -1.097050000000000
O      -3.399250000000000    -16.215850000000000     -1.089620000000000
C      -2.297160000000000    -18.322350000000000     -1.094080000000000
C      -4.676060000000000    -14.209140000000000     -1.092010000000000
H      -1.556440000000000    -16.530709999999999     -2.014230000000000
H      -1.548180000000000    -16.528870000000001     -0.183440000000000
H      -2.744570000000000    -14.453849999999999     -0.187590000000000
H      -2.762960000000000    -14.465240000000000     -2.019540000000000
H      -5.227590000000000    -14.536630000000001     -0.184860000000000
H      -4.612960000000000    -13.100830000000000     -1.096190000000000
H      -5.235100000000000    -14.542180000000000     -1.992750000000000
H      -2.864210000000000    -18.639150000000001     -1.995690000000000
H      -1.306140000000000    -18.822320000000001     -1.096900000000000
H      -2.858290000000000    -18.637530000000002     -0.188240000000000
Mg      3.460160000000000    -13.918559999999999     -0.534640000000000
C       1.806340000000000    -12.085770000000000      1.212090000000000
C       0.360620000000000    -12.413029999999999     -0.620680000000000
O       1.641240000000000    -12.611219999999999     -0.083000000000000
C       1.602720000000000    -13.162200000000000      2.263870000000000
C       0.203410000000000    -13.377940000000001     -1.787830000000000
H       2.849730000000000    -11.715479999999999      1.290650000000000
H       1.153550000000000    -11.227499999999999      1.416130000000000
H      -0.447270000000000    -12.615710000000000      0.116580000000000
H       0.282480000000000    -11.384390000000000     -1.014450000000000
H       0.232660000000000    -14.424490000000000     -1.420810000000000
H      -0.755110000000000    -13.194599999999999     -2.312430000000000
H       1.036600000000000    -13.247320000000000     -2.509150000000000
H       2.321430000000000    -13.993050000000000      2.100820000000000
H       1.777890000000000    -12.726940000000001      3.270770000000000
H       0.565960000000000    -13.552360000000000      2.212650000000000
H       2.323330000000000    -16.409020000000002     -0.490030000000000
C       3.968810000000000    -16.926020000000001     -1.857880000000000
C       2.771190000000000    -16.088730000000002     -1.453500000000000
C       5.055550000000000    -16.923390000000001     -0.775010000000000
H       3.614840000000000    -17.959779999999999     -2.034740000000000
H       4.385190000000000    -16.515560000000001     -2.802760000000000
H       5.436150000000000    -15.899300000000000     -0.610540000000000
H       4.640450000000000    -17.298919999999999      0.184820000000000
C       6.227880000000000    -17.802129999999998     -1.191760000000000
H       2.013910000000000    -16.019629999999999     -2.258830000000000
H       5.877340000000000    -18.842790000000001     -1.354310000000000
H       6.682400000000000    -17.416039999999999     -2.129540000000000
H       7.001160000000000    -17.803480000000000     -0.394930000000000
C       5.663160000000000    -14.243930000000001      1.522700000000000
C       6.905960000000000    -13.738730000000000      1.834310000000000
C       7.172850000000000    -12.742699999999999      0.909440000000000
C       6.083250000000000    -12.693420000000000      0.066320000000000
N       5.188860000000000    -13.611280000000001      0.440920000000000
C       5.881270000000000    -11.758920000000000     -1.090900000000000
N       4.761410000000000    -12.181030000000000     -1.956520000000000
C       5.151940000000000    -12.739680000000000     -3.270730000000000
H       7.542110000000000    -14.065360000000000      2.643880000000000
H       5.135130000000000    -15.034610000000001      2.042120000000000
H       8.064080000000001    -12.135820000000001      0.849930000000000
H       5.643500000000000    -10.777850000000001     -0.670400000000000
H       6.825880000000000    -11.617810000000000     -1.642080000000000
C       6.191470000000000    -13.863720000000001     -3.108540000000000
C       3.909020000000000    -13.357080000000000     -3.941280000000000
C       5.683480000000000    -11.619070000000001     -4.185900000000000
H       5.777950000000000    -14.645720000000001     -2.448320000000000
H       6.436550000000000    -14.316670000000000     -4.090560000000000
H       7.138130000000000    -13.506330000000000     -2.661650000000000
H       3.131680000000000    -12.603710000000000     -4.123430000000000
H       4.170010000000000    -13.795730000000001     -4.929330000000000
H       3.466030000000000    -14.152950000000001     -3.311850000000000
H       4.918080000000000    -10.823119999999999     -4.304220000000000
H       6.599220000000000    -11.152400000000000     -3.777430000000000
H       5.930560000000000    -12.017280000000000     -5.191750000000000
Mg      3.022280000000000    -10.152010000000001     -1.778880000000000
C       3.911630000000000     -7.515550000000000     -3.124450000000000
C       6.088510000000000     -8.405150000000001     -2.764630000000000
O       4.694170000000000     -8.572860000000000     -2.606580000000000
C       3.883110000000000     -7.485650000000000     -4.648790000000000
C       6.646870000000000     -7.145420000000000     -2.105760000000000
H       2.882730000000000     -7.685920000000000     -2.760030000000000
H       4.183540000000000     -6.530350000000000     -2.703180000000000
H       6.561950000000000     -9.256290000000000     -2.237130000000000
H       6.389550000000000     -8.495509999999999     -3.828050000000000
H       6.309950000000000     -7.080890000000000     -1.049950000000000
H       7.754370000000000     -7.186440000000000     -2.129500000000000
H       6.332830000000000     -6.237890000000000     -2.657450000000000
H       3.561420000000000     -8.461200000000000     -5.057710000000000
H       3.163100000000000     -6.709190000000000     -4.981470000000000
H       4.883720000000000     -7.239880000000000     -5.052640000000000
H       2.615580000000000    -10.372820000000001     -4.452900000000000
C       0.757890000000000     -9.346560000000000     -4.067620000000000
C       1.828460000000000    -10.371259999999999     -3.675360000000000
C       0.310700000000000     -9.478020000000001     -5.533560000000000
H      -0.127420000000000     -9.449249999999999     -3.409530000000000
H       1.167830000000000     -8.327579999999999     -3.954980000000000
H      -0.435050000000000     -8.679220000000001     -5.736070000000000
H       1.181320000000000     -9.312709999999999     -6.205940000000000
C      -0.327050000000000    -10.825900000000001     -5.865310000000000
H       1.356970000000000    -11.368819999999999     -3.672060000000000
H       0.404690000000000    -11.651899999999999     -5.749400000000000
H      -1.203530000000000    -11.009679999999999     -5.209550000000000
H      -0.665930000000000    -10.817810000000000     -6.923030000000000
C      -1.465660000000000     -9.271030000000000      1.922430000000000
C      -1.563240000000000     -7.893020000000000      1.868230000000000
C      -0.673690000000000     -7.462810000000000      0.901400000000000
C      -0.088050000000000     -8.550960000000000      0.438990000000000
N      -0.601420000000000     -9.688480000000000      1.074850000000000
C       0.978200000000000     -8.592070000000000     -0.600210000000000
N       2.206760000000000     -9.209170000000000     -0.095470000000000
C       3.043900000000000     -8.422850000000000      0.872010000000000
H      -2.200610000000000     -7.270060000000000      2.478280000000000
H      -2.014240000000000     -9.934559999999999      2.572260000000000
H      -0.467630000000000     -6.450320000000000      0.591690000000000
H       1.179500000000000     -7.607650000000000     -1.065000000000000
H       0.593830000000000     -9.232170000000000     -1.399150000000000
C       2.502780000000000     -8.610670000000001      2.303630000000000
C       4.487790000000000     -8.949669999999999      0.881170000000000
C       3.105730000000000     -6.913600000000000      0.539670000000000
H       2.506800000000000     -9.684100000000001      2.582900000000000
H       3.138140000000000     -8.072250000000000      3.038540000000000
H       1.478490000000000     -8.222009999999999      2.419700000000000
H       4.960830000000000     -8.793490000000000     -0.102370000000000
H       5.105070000000000     -8.395920000000000      1.625640000000000
H       4.523720000000000    -10.023120000000000      1.157500000000000
H       3.539120000000000     -6.750820000000000     -0.465120000000000
H       2.105260000000000     -6.440570000000000      0.587140000000000
H       3.744760000000000     -6.378560000000000      1.275160000000000

-C 0
6-31g(d,p)
****
-H 0
6-31g(d,p)
****
-Mg 0
6-31g(d,p)
****
-N 0
6-31+g(d,p)
****
-Na 0
6-31g(d,p)
****
-O 0
6-31+g(d,p)
****


