%chk=lowest10_c2_a1_speciation0_speciation3_speciationDFT11_rank01_E166.51.chk
%nprocshared=20
%mem=40GB
#p opt=loose PM7/gen scf=xqc 

lowest10_c2_a1_speciation0_speciation3_speciationDFT11_rank01_E166.51 DFT input

0 1
Na      0.165050000000000      0.266210000000000      0.201490000000000
C      -1.472420000000000      2.033960000000000     -1.817660000000000
C      -0.431350000000000      3.451180000000000     -0.257540000000000
O      -0.860410000000000      2.138870000000000     -0.548580000000000
C      -0.445970000000000      1.731150000000000     -2.905280000000000
C      -1.528250000000000      4.210960000000000      0.476360000000000
H      -2.183320000000000      1.183140000000000     -1.773510000000000
H      -2.077940000000000      2.929530000000000     -2.075720000000000
H       0.453690000000000      3.376950000000000      0.411260000000000
H      -0.090370000000000      4.006520000000000     -1.159430000000000
H      -1.815430000000000      3.665150000000000      1.400530000000000
H      -1.161500000000000      5.220910000000000      0.752560000000000
H      -2.421790000000000      4.316940000000000     -0.172300000000000
H       0.117650000000000      0.807760000000000     -2.658390000000000
H      -0.970830000000000      1.578220000000000     -3.871620000000000
H       0.267790000000000      2.572350000000000     -3.017480000000000
C       1.649220000000000     -1.565760000000000      2.368880000000000
C       0.475430000000000      0.161010000000000      3.429170000000000
O       1.029950000000000     -0.306500000000000      2.221300000000000
C       0.645820000000000     -2.706850000000000      2.212810000000000
C      -0.302730000000000      1.439230000000000      3.133590000000000
H       2.390950000000000     -1.660080000000000      1.547660000000000
H       2.223100000000000     -1.649680000000000      3.317870000000000
H      -0.236680000000000     -0.572550000000000      3.864190000000000
H       1.280550000000000      0.400170000000000      4.156790000000000
H      -1.117660000000000      1.236110000000000      2.405780000000000
H      -0.750370000000000      1.840530000000000      4.066480000000000
H       0.374500000000000      2.205920000000000      2.700980000000000
H       0.102470000000000     -2.611730000000000      1.250180000000000
H       1.185740000000000     -3.676760000000000      2.220680000000000
H      -0.087430000000000     -2.707380000000000      3.043880000000000
C       3.139820000000000      0.086580000000000     -0.864050000000000
C       1.955390000000000     -1.550320000000000     -2.062940000000000
O       1.913480000000000     -0.598150000000000     -1.021560000000000
C       3.157390000000000      1.364510000000000     -1.695930000000000
C       2.359450000000000     -2.915970000000000     -1.521160000000000
H       3.231690000000000      0.369870000000000      0.206330000000000
H       4.022580000000000     -0.551200000000000     -1.093520000000000
H       0.932370000000000     -1.630760000000000     -2.485670000000000
H       2.612700000000000     -1.241820000000000     -2.906460000000000
H       1.663120000000000     -3.230620000000000     -0.715370000000000
H       2.320740000000000     -3.663330000000000     -2.339880000000000
H       3.390500000000000     -2.880580000000000     -1.113670000000000
H       2.306560000000000      2.019110000000000     -1.410320000000000
H       4.105600000000000      1.912260000000000     -1.512260000000000
H       3.086020000000000      1.125900000000000     -2.777040000000000
C      -1.826760000000000     -2.259030000000000     -1.058700000000000
C      -2.858680000000000     -0.726420000000000      0.392340000000000
O      -1.667410000000000     -1.095100000000000     -0.274230000000000
C      -2.246990000000000     -1.900310000000000     -2.479760000000000
C      -2.936360000000000     -1.379990000000000      1.767000000000000
H      -0.841550000000000     -2.768270000000000     -1.105260000000000
H      -2.530860000000000     -2.992430000000000     -0.606540000000000
H      -2.837720000000000      0.375190000000000      0.535860000000000
H      -3.772240000000000     -0.943450000000000     -0.204560000000000
H      -2.046710000000000     -1.106710000000000      2.368150000000000
H      -3.845400000000000     -1.024830000000000      2.295930000000000
H      -2.982480000000000     -2.483960000000000      1.673420000000000
H      -1.509190000000000     -1.207110000000000     -2.935620000000000
H      -2.297060000000000     -2.823390000000000     -3.094170000000000
H      -3.244360000000000     -1.415060000000000     -2.479590000000000
Na      7.920940000000000    -13.593040000000000     -2.032040000000000
C       4.732920000000000    -12.419129999999999     -1.032900000000000
C       5.313190000000000    -11.419140000000001     -3.030770000000000
O       5.720810000000000    -12.328010000000001     -2.034020000000000
C       5.210790000000000    -13.403180000000001      0.025110000000000
C       6.401580000000000    -11.347220000000000     -4.091740000000000
H       4.574460000000000    -11.433149999999999     -0.539310000000000
H       3.775870000000000    -12.803690000000000     -1.453380000000000
H       4.374810000000000    -11.763270000000000     -3.522630000000000
H       5.182510000000000    -10.398470000000000     -2.606070000000000
H       6.562170000000000    -12.351350000000000     -4.539460000000000
H       6.106040000000000    -10.637630000000000     -4.892660000000000
H       7.353300000000000    -11.000400000000001     -3.635050000000000
H       6.165270000000000    -13.048060000000000      0.469590000000000
H       4.451170000000000    -13.497470000000000      0.829010000000000
H       5.377470000000000    -14.401479999999999     -0.433480000000000
Mg     -3.786260000000000     -8.670080000000000     -2.888000000000000
H      -2.121740000000000     -7.074220000000000     -1.214800000000000
C      -4.151920000000000     -6.702790000000000     -0.543550000000000
C      -3.143070000000000     -6.986020000000000     -1.647660000000000
C      -4.099570000000000     -7.717880000000000      0.608440000000000
H      -3.937250000000000     -5.697670000000000     -0.124970000000000
H      -5.155230000000000     -6.693380000000000     -1.006860000000000
H      -4.259530000000000     -8.753640000000001      0.239830000000000
H      -3.105760000000000     -7.663140000000000      1.101150000000000
C      -5.163850000000000     -7.386820000000000      1.654580000000000
H      -3.134240000000000     -6.145440000000000     -2.368220000000000
H      -5.026550000000000     -6.350480000000000      2.031470000000000
H      -6.175940000000000     -7.472790000000000      1.212710000000000
H      -5.094530000000000     -8.088419999999999      2.512070000000000
C      -0.848880000000000    -11.936109999999999      1.261230000000000
C      -1.522350000000000    -10.747980000000000      1.484030000000000
C      -0.866410000000000     -9.779090000000000      0.751300000000000
C       0.125210000000000    -10.394080000000001      0.123730000000000
N       0.134380000000000    -11.758520000000001      0.452570000000000
C       1.107870000000000     -9.735630000000000     -0.796340000000000
N       0.397810000000000     -9.129120000000000     -1.928190000000000
C       1.111720000000000     -8.124590000000000     -2.753500000000000
H      -2.398550000000000    -10.604970000000000      2.105080000000000
H      -1.097760000000000    -12.896390000000000      1.685630000000000
H      -1.105240000000000     -8.728790000000000      0.684940000000000
H       1.651910000000000     -8.979310000000000     -0.201410000000000
H       1.825480000000000    -10.494199999999999     -1.172790000000000
C       2.343280000000000     -8.776990000000000     -3.406730000000000
C       0.162560000000000     -7.643890000000000     -3.859800000000000
C       1.550010000000000     -6.886080000000000     -1.933960000000000
H       2.034520000000000     -9.667240000000000     -3.996120000000000
H       2.857840000000000     -8.063530000000000     -4.085630000000000
H       3.072390000000000     -9.099710000000000     -2.635680000000000
H      -0.729400000000000     -7.150310000000000     -3.418200000000000
H       0.667850000000000     -6.906320000000000     -4.522880000000000
H      -0.171660000000000     -8.500220000000001     -4.479490000000000
H       0.675110000000000     -6.382710000000000     -1.470170000000000
H       2.279180000000000     -7.139620000000000     -1.139670000000000
H       2.059480000000000     -6.152110000000000     -2.597250000000000
Mg     -1.695600000000000     -9.273849999999999     -1.889350000000000
H      -3.367720000000000    -10.874370000000001     -3.551510000000000
C      -2.682940000000000    -12.190890000000000     -1.967500000000000
C      -2.455900000000000    -11.038019999999999     -2.934950000000000
C      -3.943330000000000    -12.026570000000000     -1.104890000000000
H      -2.791210000000000    -13.124480000000000     -2.557340000000000
H      -1.783540000000000    -12.269900000000000     -1.330250000000000
H      -3.913960000000000    -11.079050000000001     -0.525690000000000
H      -4.838770000000000    -12.016710000000000     -1.761850000000000
C      -4.080120000000000    -13.202900000000000     -0.138420000000000
H      -1.623090000000000    -11.286300000000001     -3.620930000000000
H      -4.103260000000000    -14.162690000000000     -0.698070000000000
H      -3.224800000000000    -13.222720000000001      0.565080000000000
H      -5.017000000000000    -13.112710000000000      0.450100000000000
C      -7.565440000000000     -8.062220000000000     -1.134160000000000
C      -6.992270000000000     -9.320589999999999     -1.186960000000000
C      -6.453630000000000     -9.456340000000001     -2.450860000000000
C      -6.693650000000000     -8.316770000000000     -3.082500000000000
N      -7.400700000000000     -7.438980000000000     -2.246170000000000
C      -6.285940000000000     -8.004490000000001     -4.490390000000000
N      -4.825940000000000     -8.081580000000001     -4.613750000000000
C      -4.236490000000000     -8.177130000000000     -5.971730000000000
H      -6.963670000000000    -10.054740000000001     -0.390730000000000
H      -8.077610000000000     -7.632500000000000     -0.287280000000000
H      -5.932040000000000    -10.309360000000000     -2.856700000000000
H      -6.792230000000000     -8.738110000000001     -5.144170000000000
H      -6.625140000000000     -6.981110000000000     -4.753230000000000
C      -4.599830000000000     -6.919100000000000     -6.781060000000000
C      -2.709670000000000     -8.249590000000000     -5.832550000000000
C      -4.703650000000000     -9.441360000000000     -6.734160000000000
H      -4.264970000000000     -6.009030000000000     -6.238070000000000
H      -4.112220000000000     -6.935280000000000     -7.779470000000000
H      -5.696470000000000     -6.852340000000000     -6.938910000000000
H      -2.414720000000000     -9.159860000000000     -5.268260000000000
H      -2.222200000000000     -8.294300000000000     -6.832250000000000
H      -2.328690000000000     -7.356680000000000     -5.297060000000000
H      -4.433480000000000    -10.364670000000000     -6.179050000000000
H      -5.795280000000000     -9.443690000000000     -6.922010000000000
H      -4.218460000000000     -9.485860000000001     -7.735180000000000

-C 0
6-31g(d,p)
****
-H 0
6-31g(d,p)
****
-Mg 0
6-31g(d,p)
****
-N 0
6-31+g(d,p)
****
-Na 0
6-31g(d,p)
****
-O 0
6-31+g(d,p)
****


