%chk=lowest10_c2_a1_speciation3_speciation3_speciationDFT133_rank01_E239.13.chk
%nprocshared=20
%mem=40GB
#p opt=loose PM7/gen scf=xqc 

lowest10_c2_a1_speciation3_speciation3_speciationDFT133_rank01_E239.13 DFT input

0 1
Na      0.225310000000000     -0.050310000000000      0.284480000000000
C      -2.217960000000000      1.428360000000000      1.584310000000000
C      -0.688530000000000      0.883020000000000      3.285540000000000
O      -1.121820000000000      0.623430000000000      1.968020000000000
C      -1.753870000000000      2.742920000000000      0.963010000000000
C      -1.406000000000000     -0.034950000000000      4.266960000000000
H      -2.785240000000000      0.868950000000000      0.812090000000000
H      -2.928530000000000      1.608620000000000      2.419340000000000
H       0.400610000000000      0.664310000000000      3.331940000000000
H      -0.800980000000000      1.951070000000000      3.575760000000000
H      -1.235230000000000     -1.097340000000000      3.989970000000000
H      -1.016230000000000      0.137500000000000      5.291280000000000
H      -2.496180000000000      0.169210000000000      4.258030000000000
H      -1.085020000000000      2.548770000000000      0.099180000000000
H      -2.638320000000000      3.310420000000000      0.604310000000000
H      -1.213540000000000      3.361280000000000      1.708100000000000
C       2.599910000000000     -1.737330000000000     -1.022700000000000
C       1.903000000000000     -2.737820000000000      0.978200000000000
O       1.905170000000000     -1.567560000000000      0.193560000000000
C       1.699320000000000     -2.324830000000000     -2.107430000000000
C       1.002120000000000     -2.498440000000000      2.186090000000000
H       2.911320000000000     -0.726310000000000     -1.361180000000000
H       3.534950000000000     -2.326510000000000     -0.900110000000000
H       1.493050000000000     -3.606110000000000      0.419080000000000
H       2.928590000000000     -2.959960000000000      1.343480000000000
H      -0.034640000000000     -2.271200000000000      1.856390000000000
H       0.980410000000000     -3.398760000000000      2.834710000000000
H       1.379770000000000     -1.637760000000000      2.778130000000000
H       0.785080000000000     -1.707420000000000     -2.224850000000000
H       2.244990000000000     -2.337430000000000     -3.074090000000000
H       1.404230000000000     -3.362520000000000     -1.857700000000000
C       2.447550000000000      2.113350000000000     -0.317930000000000
C       0.957050000000000      2.229220000000000     -2.131760000000000
O       1.315360000000000      1.548760000000000     -0.947940000000000
C       2.031990000000000      3.163950000000000      0.706770000000000
C       1.636870000000000      1.595630000000000     -3.339970000000000
H       2.974470000000000      1.296510000000000      0.220290000000000
H       3.180580000000000      2.531090000000000     -1.043440000000000
H      -0.141090000000000      2.128240000000000     -2.256610000000000
H       1.160990000000000      3.321940000000000     -2.081740000000000
H       1.381830000000000      0.516590000000000     -3.402260000000000
H       1.289680000000000      2.098380000000000     -4.266550000000000
H       2.738280000000000      1.701910000000000     -3.263740000000000
H       1.351980000000000      2.715740000000000      1.462290000000000
H       2.934050000000000      3.551130000000000      1.225820000000000
H       1.515640000000000      4.010310000000000      0.209040000000000
C      -1.960020000000000     -0.448120000000000     -2.342490000000000
C      -2.349100000000000     -1.771910000000000     -0.439460000000000
O      -1.545890000000000     -0.769590000000000     -1.030890000000000
C      -2.976890000000000      0.688660000000000     -2.328740000000000
C      -1.787390000000000     -3.160750000000000     -0.724420000000000
H      -1.063890000000000     -0.105470000000000     -2.900740000000000
H      -2.350940000000000     -1.328170000000000     -2.899200000000000
H      -2.329790000000000     -1.612730000000000      0.660030000000000
H      -3.417050000000000     -1.702800000000000     -0.743280000000000
H      -0.742590000000000     -3.231040000000000     -0.362900000000000
H      -2.396890000000000     -3.923610000000000     -0.196110000000000
H      -1.806740000000000     -3.375540000000000     -1.811970000000000
H      -2.554980000000000      1.578120000000000     -1.815450000000000
H      -3.232390000000000      0.968190000000000     -3.372230000000000
H      -3.903200000000000      0.376060000000000     -1.805100000000000
Na      1.056600000000000    -14.799370000000000     -9.198530000000000
C       1.651520000000000    -15.863790000000000    -12.133459999999999
C      -0.567490000000000    -15.103040000000000    -12.028490000000000
O       0.554610000000000    -15.552510000000000    -11.299530000000001
C       2.530090000000000    -14.638210000000001    -12.362750000000000
C      -1.488990000000000    -16.274390000000000    -12.336760000000000
H       2.259910000000000    -16.630810000000000    -11.610600000000000
H       1.340140000000000    -16.321020000000001    -13.098540000000000
H      -1.117110000000000    -14.376210000000000    -11.391880000000000
H      -0.294640000000000    -14.554020000000000    -12.957910000000000
H      -1.789820000000000    -16.776509999999998    -11.392469999999999
H      -2.397410000000000    -15.908659999999999    -12.858200000000000
H      -0.969360000000000    -17.008240000000001    -12.986700000000001
H       2.867690000000000    -14.221760000000000    -11.391130000000000
H       3.422140000000000    -14.930260000000001    -12.955340000000000
H       1.973890000000000    -13.855689999999999    -12.918130000000000
C       0.439400000000000    -13.939439999999999     -6.132830000000000
C      -1.327100000000000    -15.194360000000000     -7.011590000000000
O      -0.188380000000000    -14.416630000000000     -7.303620000000000
C       1.433340000000000    -14.958460000000001     -5.580370000000000
C      -1.832370000000000    -15.813950000000000     -8.309760000000001
H       1.011790000000000    -13.030760000000001     -6.416400000000000
H      -0.290380000000000    -13.617550000000000     -5.356690000000000
H      -1.087970000000000    -16.026949999999999     -6.315370000000000
H      -2.132690000000000    -14.554950000000000     -6.590290000000000
H      -1.048670000000000    -16.460870000000000     -8.759460000000001
H      -2.733700000000000    -16.430830000000000     -8.112090000000000
H      -2.094060000000000    -15.016010000000000     -9.036680000000000
H       2.163190000000000    -15.246110000000000     -6.364670000000000
H       1.986160000000000    -14.511730000000000     -4.730270000000000
H       0.912030000000000    -15.867430000000001     -5.219050000000000
C       1.635530000000000    -11.668180000000000     -9.156689999999999
C       3.744510000000000    -12.659929999999999     -8.883880000000000
O       2.350600000000000    -12.871750000000000     -8.961850000000000
C       1.420470000000000    -11.407660000000000    -10.643050000000001
C       4.170590000000000    -12.481199999999999     -7.432460000000000
H       0.641330000000000    -11.784030000000000     -8.674890000000000
H       2.117660000000000    -10.792940000000000     -8.665010000000001
H       4.246350000000000    -13.562609999999999     -9.290580000000000
H       4.091640000000000    -11.807309999999999     -9.510730000000001
H       3.858530000000000    -13.362539999999999     -6.833550000000000
H       5.274600000000000    -12.382400000000001     -7.378650000000000
H       3.704710000000000    -11.570250000000000     -7.003390000000000
H       0.884800000000000    -12.263710000000000    -11.105639999999999
H       0.810050000000000    -10.489739999999999    -10.774600000000000
H       2.393940000000000    -11.267429999999999    -11.156850000000000
C       3.925270000000000    -16.651250000000001     -8.432919999999999
C       1.972100000000000    -17.872779999999999     -8.876090000000000
O       2.559920000000000    -16.589359999999999     -8.791460000000001
C       4.804030000000000    -16.718560000000000     -9.676360000000001
C       1.369780000000000    -18.278520000000000     -7.536520000000000
H       4.170600000000000    -15.720750000000001     -7.879520000000000
H       4.154080000000000    -17.491070000000001     -7.738710000000000
H       1.153080000000000    -17.821300000000001     -9.624730000000000
H       2.678980000000000    -18.650010000000002     -9.244710000000000
H       0.628820000000000    -17.521809999999999     -7.210260000000000
H       0.858570000000000    -19.258330000000001     -7.640010000000000
H       2.160390000000000    -18.365079999999999     -6.763450000000000
H       4.600170000000000    -15.849050000000000    -10.335550000000000
H       5.872500000000000    -16.699050000000000     -9.376490000000000
H       4.606940000000000    -17.653089999999999    -10.240700000000000
Mg      2.292880000000000     -8.476470000000001      0.034750000000000
C       2.388950000000000     -8.401970000000000      3.086080000000000
C       4.616760000000000     -8.963179999999999      2.576050000000000
O       3.311470000000000     -8.779249999999999      2.091110000000000
C       2.199600000000000     -6.894080000000000      3.106220000000000
C       5.559330000000000     -8.920660000000000      1.381360000000000
H       1.416140000000000     -8.871020000000000      2.831990000000000
H       2.660080000000000     -8.765459999999999      4.088700000000000
H       4.921410000000000     -8.167410000000000      3.291710000000000
H       4.699680000000000     -9.960290000000001      3.045260000000000
H       5.525890000000000     -7.916940000000000      0.910070000000000
H       6.598120000000000     -9.144700000000000      1.699480000000000
H       5.245600000000000     -9.664709999999999      0.620050000000000
H       1.857570000000000     -6.540250000000000      2.110520000000000
H       1.431300000000000     -6.631690000000000      3.864380000000000
H       3.153410000000000     -6.393380000000000      3.369760000000000
H       3.708180000000000     -6.311050000000000     -0.942160000000000
C       3.164970000000000     -7.167570000000000     -2.892300000000000
C       3.790280000000000     -7.259300000000000     -1.513100000000000
C       1.689470000000000     -6.756710000000000     -2.816860000000000
H       3.735560000000000     -6.419390000000000     -3.476360000000000
H       3.248980000000000     -8.159250000000000     -3.386820000000000
H       1.107880000000000     -7.512540000000000     -2.259200000000000
H       1.590250000000000     -5.783680000000000     -2.291250000000000
C       1.093570000000000     -6.634230000000000     -4.213410000000000
H       4.835670000000000     -7.623880000000000     -1.552330000000000
H       1.651770000000000     -5.870840000000000     -4.794890000000000
H       1.147810000000000     -7.611040000000000     -4.740700000000000
H       0.029350000000000     -6.325160000000000     -4.143510000000000
C      -0.574820000000000     -7.494550000000000     -0.113570000000000
C      -1.862260000000000     -7.970460000000000     -0.229850000000000
C      -1.773470000000000     -9.351929999999999     -0.259610000000000
C      -0.431480000000000     -9.657230000000000     -0.174070000000000
N       0.279480000000000     -8.527760000000001     -0.093060000000000
C       0.174520000000000    -11.030519999999999     -0.154870000000000
N       1.639040000000000    -10.987510000000000     -0.339070000000000
C       2.129630000000000    -11.475569999999999     -1.649140000000000
H      -2.760730000000000     -7.373210000000000     -0.287240000000000
H      -0.271580000000000     -6.455980000000000     -0.055510000000000
H      -2.591600000000000    -10.051629999999999     -0.348680000000000
H      -0.046020000000000    -11.468859999999999      0.824470000000000
H      -0.330810000000000    -11.681330000000001     -0.888450000000000
C       1.401850000000000    -10.780070000000000     -2.816750000000000
C       3.627290000000000    -11.136530000000000     -1.776060000000000
C       1.976050000000000    -13.006620000000000     -1.735140000000000
H       1.531800000000000     -9.686669999999999     -2.728690000000000
H       1.817590000000000    -11.111060000000000     -3.790870000000000
H       0.316830000000000    -10.994999999999999     -2.832830000000000
H       4.219940000000000    -11.633350000000000     -0.995480000000000
H       4.028320000000000    -11.478660000000000     -2.755600000000000
H       3.799720000000000    -10.045820000000001     -1.689830000000000
H       2.516240000000000    -13.496130000000001     -0.897440000000000
H       0.915790000000000    -13.319580000000000     -1.687730000000000
H       2.397540000000000    -13.387290000000000     -2.686850000000000
Mg      2.615460000000000    -12.010400000000001      1.989280000000000
C       2.099350000000000    -15.032240000000000      2.406240000000000
C       0.277830000000000    -14.646910000000000      0.925590000000000
O       1.373250000000000    -14.098599999999999      1.631250000000000
C       2.931610000000000    -15.990530000000000      1.560460000000000
C      -0.775560000000000    -15.302989999999999      1.816820000000000
H       2.786400000000000    -14.441660000000001      3.039740000000000
H       1.466470000000000    -15.574880000000000      3.132530000000000
H      -0.230110000000000    -13.793730000000000      0.434000000000000
H       0.615370000000000    -15.315450000000000      0.107870000000000
H      -1.078700000000000    -14.609560000000000      2.629200000000000
H      -1.664780000000000    -15.550970000000000      1.202900000000000
H      -0.395620000000000    -16.248470000000001      2.250970000000000
H       3.596890000000000    -15.434690000000000      0.873920000000000
H       3.558240000000000    -16.614380000000001      2.231390000000000
H       2.277180000000000    -16.656459999999999      0.966080000000000
H       4.415190000000000    -13.398050000000000      0.510250000000000
C       5.558050000000000    -13.501250000000001      2.337330000000000
C       4.653200000000000    -12.735799999999999      1.364070000000000
C       6.734420000000000    -14.204789999999999      1.637420000000000
H       5.956220000000000    -12.813770000000000      3.109700000000000
H       4.970090000000000    -14.292430000000000      2.835770000000000
H       7.310570000000000    -14.758850000000001      2.409820000000000
H       6.344250000000000    -14.945130000000001      0.904650000000000
C       7.688280000000000    -13.250180000000000      0.921200000000000
H       5.222690000000000    -11.874910000000000      0.973300000000000
H       7.175750000000000    -12.725820000000001      0.088500000000000
H       8.097590000000000    -12.505400000000000      1.635160000000000
H       8.530170000000000    -13.832310000000000      0.489460000000000
C       4.196850000000000     -9.325070000000000      7.005800000000000
C       4.040230000000000    -10.370850000000001      7.896220000000000
C       3.733810000000000    -11.493670000000000      7.150680000000000
C       3.704530000000000    -11.096310000000001      5.892270000000000
N       4.009770000000000     -9.731350000000001      5.804550000000000
C       3.387480000000000    -11.956730000000000      4.716330000000000
N       2.224800000000000    -11.463220000000000      3.974790000000000
C       0.867420000000000    -11.648940000000000      4.588590000000000
H       4.125640000000000    -10.317570000000000      8.972000000000000
H       4.436600000000000     -8.301520000000000      7.247750000000000
H       3.534790000000000    -12.492880000000000      7.507350000000000
H       3.279210000000000    -13.028269999999999      4.973000000000000
H       4.253950000000000    -11.890840000000001      4.051170000000000
C       0.576980000000000    -10.499219999999999      5.574300000000000
C      -0.218120000000000    -11.581460000000000      3.502630000000000
C       0.704840000000000    -13.002850000000000      5.318700000000000
H       0.629680000000000     -9.519940000000000      5.056120000000000
H      -0.443190000000000    -10.596719999999999      6.003250000000000
H       1.281750000000000    -10.486230000000001      6.421760000000000
H      -0.102780000000000    -12.417310000000001      2.792590000000000
H      -1.233030000000000    -11.678070000000000      3.952570000000000
H      -0.186770000000000    -10.615180000000001      2.959630000000000
H       0.862670000000000    -13.846920000000001      4.620670000000000
H       1.405840000000000    -13.096850000000000      6.171340000000000
H      -0.319930000000000    -13.097960000000000      5.739450000000000

-C 0
6-31g(d,p)
****
-H 0
6-31g(d,p)
****
-Mg 0
6-31g(d,p)
****
-N 0
6-31+g(d,p)
****
-Na 0
6-31g(d,p)
****
-O 0
6-31+g(d,p)
****


