%chk=lowest10_c2_a1_speciation0_speciation0_speciationDFT39_rank04_E166.11.chk
%nprocshared=20
%mem=40GB
#p opt=loose PM7/gen scf=xqc 

lowest10_c2_a1_speciation0_speciation0_speciationDFT39_rank04_E166.11 DFT input

0 1
Na      0.001020000000000      2.201080000000000      0.000680000000000
C       0.580420000000000     -1.041570000000000     -1.001490000000000
C      -0.578930000000000     -1.041080000000000      1.002790000000000
O       0.000910000000000     -0.238220000000000      0.000670000000000
C       1.186130000000000     -0.124120000000000     -2.056690000000000
C      -1.188090000000000     -0.124280000000000      2.056190000000000
H       1.397360000000000     -1.671850000000000     -0.582430000000000
H      -0.188780000000000     -1.676550000000000     -1.497070000000000
H      -1.395150000000000     -1.670540000000000      0.582770000000000
H       0.190480000000000     -1.674710000000000      1.499900000000000
H      -1.964520000000000      0.522430000000000      1.593630000000000
H      -1.655450000000000     -0.724060000000000      2.864970000000000
H      -0.400660000000000      0.523720000000000      2.497810000000000
H       1.961130000000000      0.525560000000000     -1.595900000000000
H       1.654300000000000     -0.723090000000000     -2.865540000000000
H       0.396320000000000      0.521060000000000     -2.498270000000000
Na      5.544720000000000    -16.077880000000000      6.597950000000000
C       2.324250000000000    -15.277160000000000      5.406270000000000
C       3.767800000000000    -13.546870000000000      4.904130000000000
O       3.651840000000000    -14.815250000000001      5.506760000000000
C       2.242600000000000    -16.648750000000000      6.060940000000000
C       5.211780000000000    -13.083880000000001      5.032010000000000
H       1.625620000000000    -14.596560000000000      5.944110000000000
H       2.020480000000000    -15.386110000000000      4.340100000000000
H       3.519830000000000    -13.599990000000000      3.820210000000000
H       3.120020000000000    -12.801250000000000      5.419190000000000
H       5.887160000000000    -13.804810000000000      4.523240000000000
H       5.334180000000000    -12.083860000000000      4.565900000000000
H       5.496200000000000    -13.020320000000000      6.104250000000000
H       2.538130000000000    -16.576840000000001      7.129670000000000
H       1.205770000000000    -17.040250000000000      5.998810000000000
H       2.927290000000000    -17.356159999999999      5.545690000000000
Mg     -2.536870000000000    -10.031400000000000      1.642860000000000
H      -4.903810000000000    -11.537210000000000      1.943980000000000
C      -4.446620000000000    -11.344960000000000     -0.191410000000000
C      -4.536730000000000    -10.781150000000000      1.219880000000000
C      -3.535590000000000    -12.567370000000000     -0.193410000000000
H      -5.448850000000000    -11.621259999999999     -0.580870000000000
H      -4.020480000000000    -10.555899999999999     -0.845820000000000
H      -2.603270000000000    -12.322200000000000      0.331470000000000
H      -4.023260000000000    -13.394810000000000      0.363220000000000
C      -3.189480000000000    -13.008250000000000     -1.610540000000000
H      -5.226000000000000     -9.908560000000000      1.222410000000000
H      -4.110090000000000    -13.269040000000000     -2.171330000000000
H      -2.652160000000000    -12.192780000000001     -2.143690000000000
H      -2.522290000000000    -13.894570000000000     -1.567890000000000
C      -0.335830000000000     -7.913450000000000     -2.766710000000000
C      -0.339870000000000     -9.184120000000000     -2.236370000000000
C      -1.309940000000000     -9.211180000000001     -1.251070000000000
C      -1.873550000000000     -8.008279999999999     -1.179530000000000
N      -1.313960000000000     -7.130170000000000     -2.131010000000000
C      -2.962120000000000     -7.618190000000000     -0.221120000000000
N      -2.404010000000000     -7.442270000000000      1.132800000000000
C      -2.388060000000000     -6.053870000000000      1.645130000000000
H       0.306220000000000     -9.999010000000000     -2.538790000000000
H       0.317530000000000     -7.562460000000000     -3.553520000000000
H      -1.580260000000000    -10.055580000000001     -0.645940000000000
H      -3.744710000000000     -8.398840000000000     -0.206700000000000
H      -3.473650000000000     -6.715400000000000     -0.595190000000000
C      -3.826310000000000     -5.627840000000000      1.987740000000000
C      -1.543360000000000     -5.997200000000000      2.933000000000000
C      -1.719270000000000     -5.080450000000000      0.648430000000000
H      -4.264980000000000     -6.337320000000000      2.724030000000000
H      -3.842430000000000     -4.610080000000000      2.427570000000000
H      -4.477160000000000     -5.633170000000000      1.091260000000000
H      -0.508790000000000     -6.336570000000000      2.732220000000000
H      -1.492490000000000     -4.961410000000000      3.329760000000000
H      -1.964370000000000     -6.611450000000000      3.741810000000000
H      -0.684370000000000     -5.418640000000000      0.426840000000000
H      -2.263830000000000     -4.988270000000000     -0.308430000000000
H      -1.670170000000000     -4.063380000000000      1.088110000000000
Mg     -0.028520000000000     -8.315720000000001      1.360310000000000
H       2.484340000000000     -8.116000000000000      0.191010000000000
C       2.308320000000000     -6.254170000000000      1.338440000000000
C       1.711280000000000     -7.379470000000000      0.488600000000000
C       3.057520000000000     -6.767630000000000      2.572870000000000
H       3.045740000000000     -5.721030000000000      0.702030000000000
H       1.522180000000000     -5.523100000000000      1.630180000000000
H       3.804630000000000     -7.524660000000000      2.250250000000000
H       3.600580000000000     -5.918040000000000      3.038590000000000
C       2.142510000000000     -7.362830000000000      3.634410000000000
H       1.298500000000000     -6.920330000000000     -0.436160000000000
H       1.447490000000000     -6.591460000000000      4.025410000000000
H       1.562070000000000     -8.197419999999999      3.215550000000000
H       2.754530000000000     -7.745970000000000      4.477700000000000
C      -3.681860000000000    -11.031470000000001      5.527890000000000
C      -4.221280000000000     -9.842029999999999      5.092570000000000
C      -3.221240000000000     -9.163919999999999      4.427620000000000
C      -2.111470000000000     -9.906150000000000      4.447650000000000
N      -2.340050000000000    -11.116250000000001      5.142320000000000
C      -0.775770000000000     -9.525760000000000      3.870990000000000
N      -0.610650000000000     -9.989990000000001      2.479210000000000
C       0.238510000000000    -11.195069999999999      2.261130000000000
H      -5.236700000000000     -9.508599999999999      5.250350000000000
H      -4.208500000000000    -11.792160000000001      6.087000000000000
H      -3.345720000000000     -8.195140000000000      3.974220000000000
H       0.033460000000000     -9.823670000000000      4.558700000000000
H      -0.716980000000000     -8.425860000000000      3.858270000000000
C      -0.379560000000000    -12.417140000000000      2.963120000000000
C       0.350130000000000    -11.495740000000000      0.755850000000000
C       1.688440000000000    -10.969970000000000      2.747400000000000
H      -1.418300000000000    -12.583710000000000      2.601070000000000
H       0.215900000000000    -13.332610000000001      2.764760000000000
H      -0.399440000000000    -12.272420000000000      4.059980000000000
H       0.787630000000000    -10.634230000000001      0.208800000000000
H       0.998490000000000    -12.382149999999999      0.580000000000000
H      -0.618020000000000    -11.736459999999999      0.313360000000000
H       2.146860000000000    -10.119990000000000      2.199720000000000
H       1.767690000000000    -10.783700000000000      3.833460000000000
H       2.304470000000000    -11.869579999999999      2.538730000000000

-C 0
6-31g(d,p)
****
-H 0
6-31g(d,p)
****
-Mg 0
6-31g(d,p)
****
-N 0
6-31+g(d,p)
****
-Na 0
6-31g(d,p)
****
-O 0
6-31+g(d,p)
****


