%chk=lowest10_c2_a1_speciation0_speciation3_speciationDFT66b_rank01_E200.36.chk
%nprocshared=20
%mem=40GB
#p opt=loose PM7/gen scf=xqc 

lowest10_c2_a1_speciation0_speciation3_speciationDFT66b_rank01_E200.36 DFT input

0 1
Na     -0.113830000000000     -0.107000000000000     -0.356150000000000
C      -0.005580000000000     -2.880820000000000      1.110810000000000
C      -0.831790000000000     -3.222400000000000     -1.063890000000000
O      -0.595780000000000     -2.291700000000000     -0.029810000000000
C       1.517480000000000     -2.867590000000000      1.018510000000000
C      -2.231180000000000     -3.809880000000000     -0.934050000000000
H      -0.298490000000000     -2.268810000000000      1.988860000000000
H      -0.386370000000000     -3.906150000000000      1.307350000000000
H      -0.768390000000000     -2.675980000000000     -2.030190000000000
H      -0.060780000000000     -4.023270000000000     -1.110790000000000
H      -2.987860000000000     -2.996040000000000     -0.943560000000000
H      -2.427940000000000     -4.495280000000000     -1.783930000000000
H      -2.323630000000000     -4.377380000000000      0.014430000000000
H       1.888120000000000     -1.831770000000000      0.874140000000000
H       1.944920000000000     -3.268800000000000      1.961550000000000
H       1.865020000000000     -3.495500000000000      0.174070000000000
C      -0.413720000000000      2.748660000000000     -1.759390000000000
C      -2.318890000000000      1.444650000000000     -2.156460000000000
O      -0.965280000000000      1.449980000000000     -1.765990000000000
C      -0.678670000000000      3.465680000000000     -0.436880000000000
C      -2.859930000000000      0.029150000000000     -1.979530000000000
H       0.686260000000000      2.633240000000000     -1.860240000000000
H      -0.744140000000000      3.356110000000000     -2.630290000000000
H      -2.931190000000000      2.120450000000000     -1.521840000000000
H      -2.413220000000000      1.725750000000000     -3.227350000000000
H      -2.779920000000000     -0.285450000000000     -0.916640000000000
H      -3.925990000000000     -0.016220000000000     -2.284700000000000
H      -2.277240000000000     -0.681880000000000     -2.602830000000000
H      -0.321630000000000      2.848830000000000      0.413380000000000
H      -0.133820000000000      4.432830000000000     -0.425930000000000
H      -1.759790000000000      3.671350000000000     -0.306180000000000
C       2.577930000000000      0.228270000000000     -1.978900000000000
C       3.091080000000000      0.885670000000000      0.218430000000000
O       2.078520000000000      0.493150000000000     -0.683540000000000
C       2.939380000000000     -1.245770000000000     -2.130810000000000
C       3.234800000000000      2.403010000000000      0.233930000000000
H       1.769630000000000      0.461770000000000     -2.704640000000000
H       3.437570000000000      0.880490000000000     -2.250880000000000
H       2.783770000000000      0.553900000000000      1.231920000000000
H       4.066970000000000      0.390690000000000      0.016230000000000
H       2.263290000000000      2.878100000000000      0.486280000000000
H       3.984690000000000      2.696530000000000      0.997690000000000
H       3.568580000000000      2.769930000000000     -0.758140000000000
H       2.053570000000000     -1.882000000000000     -1.919520000000000
H       3.275450000000000     -1.438430000000000     -3.171440000000000
H       3.758470000000000     -1.519570000000000     -1.434500000000000
C       0.133420000000000      1.119140000000000      2.851730000000000
C      -1.933240000000000      0.184100000000000      2.237530000000000
O      -0.608650000000000      0.474860000000000      1.837230000000000
C       0.857810000000000      0.100120000000000      3.725010000000000
C      -2.871620000000000      1.335180000000000      1.893460000000000
H       0.895420000000000      1.755350000000000      2.355070000000000
H      -0.485910000000000      1.806810000000000      3.468980000000000
H      -2.266880000000000     -0.711770000000000      1.671330000000000
H      -2.009050000000000     -0.084160000000000      3.314530000000000
H      -2.827180000000000      1.551060000000000      0.807750000000000
H      -3.913230000000000      1.056290000000000      2.157320000000000
H      -2.591420000000000      2.249960000000000      2.453860000000000
H       1.511140000000000     -0.546360000000000      3.102290000000000
H       1.487600000000000      0.632210000000000      4.468250000000000
H       0.128720000000000     -0.537830000000000      4.264880000000000
Na     -4.564800000000000    -16.135330000000000      6.507120000000000
C      -1.489520000000000    -14.470540000000000      6.062790000000000
C      -2.645220000000000    -14.471069999999999      4.062310000000000
O      -2.673040000000000    -14.873070000000000      5.412850000000000
C      -1.562020000000000    -14.922390000000000      7.514650000000000
C      -3.939580000000000    -14.925520000000001      3.403490000000000
H      -0.598390000000000    -14.949730000000001      5.597270000000000
H      -1.388280000000000    -13.361430000000000      6.052480000000000
H      -2.586580000000000    -13.361920000000000      3.978360000000000
H      -1.796480000000000    -14.948960000000000      3.521750000000000
H      -4.809210000000000    -14.463460000000000      3.917950000000000
H      -3.953230000000000    -14.625230000000000      2.336640000000000
H      -4.029270000000000    -16.031060000000000      3.466850000000000
H      -1.661930000000000    -16.027999999999999      7.563280000000000
H      -0.641120000000000    -14.619370000000000      8.055320000000000
H      -2.441430000000000    -14.460129999999999      8.012359999999999
Mg      2.485650000000000    -10.567530000000000     -1.258660000000000
C       0.333300000000000     -9.196850000000000     -2.251030000000000
C      -1.680770000000000     -8.363540000000000     -1.416090000000000
O      -0.334820000000000     -8.666420000000000     -1.122570000000000
C       0.693890000000000     -8.153499999999999     -3.283780000000000
C      -2.503130000000000     -8.451549999999999     -0.135850000000000
H      -0.528970000000000    -11.042330000000000     -0.748600000000000
H      -0.166810000000000    -10.082820000000000     -2.697780000000000
H      -1.739970000000000     -7.326860000000000     -1.808270000000000
H      -2.135200000000000     -9.071450000000000     -2.145220000000000
H      -2.095340000000000     -7.761700000000000      0.633300000000000
H      -3.555940000000000     -8.171460000000000     -0.349580000000000
H      -2.488160000000000     -9.486409999999999      0.266710000000000
H       1.224550000000000     -7.315080000000000     -2.798530000000000
H       1.356600000000000     -8.624200000000000     -4.039020000000000
H      -0.224190000000000     -7.779730000000000     -3.776720000000000
H       3.322820000000000    -12.230829999999999     -3.232550000000000
C       5.091360000000000    -10.968090000000000     -3.153690000000000
C       3.566590000000000    -11.159680000000000     -3.090980000000000
C       5.832850000000000    -11.690220000000000     -2.022740000000000
H       5.452570000000000    -11.358590000000000     -4.130450000000000
H       5.321960000000000     -9.891050000000000     -3.122060000000000
H       5.483550000000000    -11.303900000000001     -1.044440000000000
H       5.625160000000000    -12.777229999999999     -2.082220000000000
C       7.348380000000000    -11.501890000000000     -2.115450000000000
H       3.110760000000000    -10.581790000000000     -3.922860000000000
H       7.731210000000000    -11.908170000000000     -3.075780000000000
H       7.624260000000000    -10.429919999999999     -2.038280000000000
H       7.842210000000000    -12.048859999999999     -1.283640000000000
C       2.989440000000000    -13.244579999999999     -0.177060000000000
C       2.605070000000000    -14.319690000000000      0.582750000000000
C       1.386960000000000    -13.994070000000001      1.127040000000000
C       1.069920000000000    -12.733860000000000      0.665650000000000
N       2.071030000000000    -12.272740000000001     -0.134130000000000
C      -0.218480000000000    -12.039630000000001      1.004160000000000
N      -1.037990000000000    -11.736680000000000     -0.178110000000000
C      -1.528610000000000    -12.836220000000001     -1.050020000000000
H       3.156240000000000    -15.236400000000000      0.716080000000000
H       3.897790000000000    -13.175700000000001     -0.745100000000000
H       0.785820000000000    -14.614780000000000      1.777140000000000
H      -0.813660000000000    -12.649310000000000      1.716780000000000
H      -0.001890000000000    -11.095219999999999      1.541610000000000
C      -2.148630000000000    -13.977969999999999     -0.222780000000000
C      -2.625430000000000    -12.247900000000000     -1.959270000000000
C      -0.413620000000000    -13.389189999999999     -1.970250000000000
H      -2.960790000000000    -13.581939999999999      0.422020000000000
H      -2.571320000000000    -14.759280000000000     -0.889710000000000
H      -1.389030000000000    -14.467570000000000      0.419560000000000
H      -2.216820000000000    -11.428690000000000     -2.586860000000000
H      -3.033600000000000    -13.025480000000000     -2.641340000000000
H      -3.461280000000000    -11.837820000000001     -1.353170000000000
H       0.061120000000000    -12.567110000000000     -2.548600000000000
H       0.370580000000000    -13.928150000000000     -1.415240000000000
H      -0.831080000000000    -14.123730000000000     -2.689810000000000
Mg      5.490850000000000     -9.278720000000000      0.173110000000000
H       7.356910000000000    -10.970570000000000      1.029130000000000
C       6.043700000000000    -10.850440000000001      2.741690000000000
C       6.813550000000000    -10.199050000000000      1.614600000000000
C       4.956820000000000    -11.753330000000000      2.166490000000000
H       6.743160000000000    -11.433380000000000      3.378640000000000
H       5.582140000000000    -10.058840000000000      3.364330000000000
H       4.304540000000000    -11.157780000000001      1.497780000000000
H       5.412280000000000    -12.566710000000000      1.561340000000000
C       4.113760000000000    -12.348860000000000      3.285980000000000
H       7.553120000000000     -9.472690000000000      2.013240000000000
H       4.747550000000000    -12.975059999999999      3.947220000000000
H       3.640540000000000    -11.539280000000000      3.881910000000000
H       3.311800000000000    -12.979100000000001      2.860800000000000
C       6.794550000000000     -5.669360000000000     -0.327410000000000
C       7.382270000000000     -6.642700000000000     -1.102620000000000
C       6.370240000000000     -7.430220000000000     -1.607590000000000
C       5.206800000000000     -6.968100000000000     -1.141480000000000
N       5.401200000000000     -5.833590000000000     -0.330980000000000
C       3.876670000000000     -7.629820000000000     -1.348540000000000
N       3.571460000000000     -8.490810000000000     -0.194530000000000
C       2.848560000000000     -7.944180000000000      0.981640000000000
H       8.443490000000001     -6.778490000000000     -1.259850000000000
H       7.318500000000000     -4.901950000000000      0.221540000000000
H       6.513360000000000     -8.307720000000000     -2.215330000000000
H       3.964980000000000     -8.310800000000000     -2.218380000000000
H       3.088710000000000     -6.911640000000000     -1.631030000000000
C       1.957450000000000     -6.727270000000000      0.642100000000000
C       1.926490000000000     -9.053070000000000      1.518850000000000
C       3.842930000000000     -7.567110000000000      2.082370000000000
H       1.230510000000000     -6.980710000000000     -0.155560000000000
H       1.380290000000000     -6.403000000000000      1.534320000000000
H       2.569130000000000     -5.865740000000000      0.308270000000000
H       2.491020000000000     -9.965090000000000      1.784060000000000
H       1.379380000000000     -8.719580000000001      2.427200000000000
H       1.182980000000000     -9.331670000000001      0.748460000000000
H       4.432360000000000     -8.452990000000000      2.373660000000000
H       4.540370000000000     -6.782740000000000      1.747700000000000
H       3.307600000000000     -7.192680000000000      2.980500000000000

-C 0
6-31g(d,p)
****
-H 0
6-31g(d,p)
****
-Mg 0
6-31g(d,p)
****
-N 0
6-31+g(d,p)
****
-Na 0
6-31g(d,p)
****
-O 0
6-31+g(d,p)
****


