%chk=lowest10_c2_a1_speciation0_speciation0_speciationDFT39_rank03_E166.10.chk
%nprocshared=20
%mem=40GB
#p opt=loose PM7/gen scf=xqc 

lowest10_c2_a1_speciation0_speciation0_speciationDFT39_rank03_E166.10 DFT input

0 1
Na      1.728340000000000     -0.777440000000000     -0.926640000000000
C      -1.194210000000000      1.025660000000000     -0.517280000000000
C      -0.615940000000000      0.023280000000000      1.486910000000000
O      -0.253880000000000      0.205480000000000      0.137350000000000
C      -0.757550000000000      1.189310000000000     -1.967390000000000
C       0.429220000000000     -0.867830000000000      2.145140000000000
H      -2.203680000000000      0.555220000000000     -0.512600000000000
H      -1.231180000000000      2.037070000000000     -0.052510000000000
H      -0.630550000000000      0.995850000000000      2.029380000000000
H      -1.603080000000000     -0.485890000000000      1.568480000000000
H       1.429940000000000     -0.388710000000000      2.083400000000000
H       0.175200000000000     -1.035710000000000      3.212660000000000
H       0.470890000000000     -1.848520000000000      1.625730000000000
H      -0.711140000000000      0.196440000000000     -2.464310000000000
H      -1.477450000000000      1.832490000000000     -2.515410000000000
H       0.249050000000000      1.658160000000000     -2.010210000000000
Na      0.892530000000000    -13.399810000000000     12.500650000000000
C       1.470670000000000    -10.863880000000000     10.105689999999999
C       0.314150000000000    -12.593750000000000      9.107049999999999
O       0.894180000000000    -12.134160000000000     10.306170000000000
C       2.078750000000000    -10.399250000000000     11.421170000000000
C      -0.297320000000000    -13.963620000000001      9.361960000000000
H       2.285570000000000    -10.913240000000000      9.347989999999999
H       0.698980000000000    -10.120200000000001      9.801790000000000
H      -0.500530000000000    -11.911560000000000      8.775200000000000
H       1.084050000000000    -12.703260000000000      8.309469999999999
H      -1.075840000000000    -13.889939999999999     10.151360000000000
H      -0.761980000000000    -14.352349999999999      8.431749999999999
H       0.488900000000000    -14.673470000000000      9.697469999999999
H       2.856950000000000    -11.119070000000001     11.754189999999999
H       2.542930000000000     -9.398910000000001     11.294440000000000
H       1.290430000000000    -10.335459999999999     12.201650000000001
Mg      0.628600000000000     -8.209090000000000      2.521490000000000
H       2.086810000000000     -5.813890000000000      2.876070000000000
C       0.010860000000000     -5.325690000000000      2.371240000000000
C       1.276370000000000     -6.153940000000000      2.198890000000000
C      -0.447800000000000     -5.394280000000000      3.823710000000000
H       0.176340000000000     -4.268540000000000      2.078370000000000
H      -0.768230000000000     -5.756270000000000      1.707810000000000
H      -0.461360000000000     -6.443250000000000      4.147820000000000
H       0.277880000000000     -4.855390000000000      4.468320000000000
C      -1.847610000000000     -4.818400000000000      3.999330000000000
H       1.624150000000000     -6.075670000000000      1.145600000000000
H      -1.871780000000000     -3.754510000000000      3.686600000000000
H      -2.577460000000000     -5.398080000000000      3.391700000000000
H      -2.145520000000000     -4.894630000000000      5.066150000000000
C      -4.227380000000000     -9.003780000000001      0.501940000000000
C      -3.804110000000000     -8.601590000000000      1.756930000000000
C      -2.466210000000000     -8.284580000000000      1.630230000000000
C      -2.139680000000000     -8.496880000000001      0.367250000000000
N      -3.268210000000000     -8.942280000000000     -0.345390000000000
C      -0.775070000000000     -8.296920000000000     -0.229220000000000
N       0.125490000000000     -9.384729999999999      0.197120000000000
C       0.564340000000000    -10.312659999999999     -0.869370000000000
H      -4.402300000000000     -8.545650000000000      2.658360000000000
H      -5.226350000000000     -9.329840000000001      0.248170000000000
H      -1.807240000000000     -7.920270000000000      2.393680000000000
H      -0.367840000000000     -7.322750000000000      0.099670000000000
H      -0.858450000000000     -8.210550000000000     -1.325640000000000
C       1.580350000000000     -9.594580000000001     -1.774390000000000
C       1.259430000000000    -11.530060000000001     -0.228600000000000
C      -0.631520000000000    -10.872350000000001     -1.673190000000000
H       2.436980000000000     -9.229660000000001     -1.165100000000000
H       1.971160000000000    -10.281960000000000     -2.552070000000000
H       1.128190000000000     -8.716020000000000     -2.275570000000000
H       0.569550000000000    -12.050190000000001      0.463670000000000
H       1.579150000000000    -12.258509999999999     -1.003220000000000
H       2.169800000000000    -11.254280000000000      0.323060000000000
H      -1.341320000000000    -11.381530000000000     -0.986520000000000
H      -1.188120000000000    -10.097799999999999     -2.230520000000000
H      -0.275690000000000    -11.609600000000000     -2.422910000000000
Mg     -0.847550000000000    -10.839119999999999      2.047790000000000
H      -3.124650000000000    -12.307860000000000      2.677500000000000
C      -2.047890000000000    -13.604300000000000      1.272620000000000
C      -2.482180000000000    -12.225540000000001      1.777940000000000
C      -1.349840000000000    -14.444459999999999      2.347650000000000
H      -2.968640000000000    -14.148120000000000      0.973120000000000
H      -1.404300000000000    -13.505800000000001      0.370620000000000
H      -2.000920000000000    -14.489020000000000      3.247330000000000
H      -1.217130000000000    -15.477480000000000      1.961650000000000
C       0.027030000000000    -13.918369999999999      2.730230000000000
H      -3.077550000000000    -11.743589999999999      0.971970000000000
H       0.711340000000000    -13.949299999999999      1.857510000000000
H      -0.045710000000000    -12.885090000000000      3.098940000000000
H       0.454060000000000    -14.551390000000000      3.536040000000000
C       4.582590000000000     -8.529680000000001      3.861540000000000
C       4.471720000000000     -8.533040000000000      2.491060000000000
C       3.395130000000000     -9.333640000000001      2.168960000000000
C       2.860640000000000     -9.801600000000001      3.302100000000000
N       3.574310000000000     -9.328180000000000      4.421100000000000
C       1.692680000000000    -10.747109999999999      3.401970000000000
N       0.404170000000000    -10.039630000000001      3.527950000000000
C      -0.210330000000000     -9.980960000000000      4.884660000000000
H       5.116270000000000     -8.007160000000001      1.799400000000000
H       5.330260000000000     -7.998300000000000      4.431100000000000
H       3.063760000000000     -9.529769999999999      1.165910000000000
H       1.883800000000000    -11.507999999999999      4.178030000000000
H       1.654350000000000    -11.329860000000000      2.468460000000000
C       0.705700000000000     -9.210200000000000      5.851670000000000
C      -1.569190000000000     -9.262800000000000      4.815630000000000
C      -0.513150000000000    -11.391740000000000      5.438850000000000
H       0.913230000000000     -8.191810000000000      5.454770000000000
H       0.234140000000000     -9.111359999999999      6.851730000000000
H       1.664880000000000     -9.743460000000001      5.994110000000000
H      -2.259990000000000     -9.783970000000000      4.119690000000000
H      -2.048170000000000     -9.230650000000001      5.818790000000000
H      -1.465700000000000     -8.223920000000000      4.497000000000000
H      -1.215720000000000    -11.924490000000000      4.764310000000000
H       0.388840000000000    -12.012960000000000      5.584220000000000
H      -1.002970000000000    -11.313739999999999      6.432130000000000

-C 0
6-31g(d,p)
****
-H 0
6-31g(d,p)
****
-Mg 0
6-31g(d,p)
****
-N 0
6-31+g(d,p)
****
-Na 0
6-31g(d,p)
****
-O 0
6-31+g(d,p)
****


