%chk=lowest10_c2_a1_speciation3_speciation3_speciationDFT11_rank02_E202.14.chk
%nprocshared=20
%mem=40GB
#p opt=loose PM7/gen scf=xqc 

lowest10_c2_a1_speciation3_speciation3_speciationDFT11_rank02_E202.14 DFT input

0 1
Na      0.372970000000000     -0.001130000000000      0.049130000000000
C      -0.545380000000000      2.431770000000000      1.809260000000000
C       1.765260000000000      2.121310000000000      2.114750000000000
O       0.549540000000000      1.547160000000000      1.686620000000000
C      -0.724910000000000      3.272970000000000      0.548680000000000
C       1.995780000000000      1.825010000000000      3.590890000000000
H      -1.457700000000000      1.813680000000000      1.938760000000000
H      -0.476590000000000      3.074140000000000      2.713450000000000
H       2.585390000000000      1.651240000000000      1.529450000000000
H       1.825640000000000      3.212840000000000      1.908080000000000
H       1.985070000000000      0.727710000000000      3.765110000000000
H       2.980310000000000      2.230220000000000      3.902900000000000
H       1.201640000000000      2.295530000000000      4.205900000000000
H      -0.841980000000000      2.618810000000000     -0.339930000000000
H      -1.637940000000000      3.896350000000000      0.651710000000000
H       0.146220000000000      3.941480000000000      0.394420000000000
C       1.246630000000000     -2.607610000000000     -1.581950000000000
C       2.207830000000000     -2.626350000000000      0.553530000000000
O       1.594310000000000     -1.846040000000000     -0.446080000000000
C      -0.119910000000000     -3.270620000000000     -1.418640000000000
C       2.397210000000000     -1.754490000000000      1.790700000000000
H       1.173230000000000     -1.900470000000000     -2.435230000000000
H       2.031800000000000     -3.345870000000000     -1.856090000000000
H       1.572360000000000     -3.488430000000000      0.845520000000000
H       3.206320000000000     -2.975390000000000      0.213010000000000
H       1.414970000000000     -1.387580000000000      2.158990000000000
H       2.886060000000000     -2.336330000000000      2.599630000000000
H       3.031940000000000     -0.876920000000000      1.544310000000000
H      -0.888150000000000     -2.510840000000000     -1.166690000000000
H      -0.407480000000000     -3.762000000000000     -2.371660000000000
H      -0.096010000000000     -4.040070000000000     -0.621220000000000
C       1.405870000000000      1.142930000000000     -2.711420000000000
C      -0.930840000000000      1.017460000000000     -2.927330000000000
O       0.191790000000000      0.718840000000000     -2.125230000000000
C       1.765710000000000      2.552680000000000     -2.254260000000000
C      -1.255730000000000     -0.152510000000000     -3.848410000000000
H       2.205170000000000      0.453320000000000     -2.364940000000000
H       1.395560000000000      1.073750000000000     -3.822060000000000
H      -1.794300000000000      1.177890000000000     -2.248800000000000
H      -0.813090000000000      1.962530000000000     -3.502970000000000
H      -1.418590000000000     -1.075630000000000     -3.252990000000000
H      -2.180180000000000      0.071510000000000     -4.420210000000000
H      -0.423980000000000     -0.325510000000000     -4.561540000000000
H       1.835710000000000      2.590410000000000     -1.146230000000000
H       2.748680000000000      2.840670000000000     -2.682920000000000
H       1.000310000000000      3.279630000000000     -2.595510000000000
C      -3.002590000000000     -0.687840000000000     -0.001230000000000
C      -1.871370000000000     -1.116170000000000      2.013690000000000
O      -1.770960000000000     -0.633700000000000      0.688270000000000
C      -3.781470000000000      0.611460000000000      0.175100000000000
C      -1.589350000000000     -2.613580000000000      2.071820000000000
H      -2.775840000000000     -0.813140000000000     -1.080590000000000
H      -3.620330000000000     -1.566880000000000      0.287140000000000
H      -1.098420000000000     -0.597080000000000      2.619980000000000
H      -2.849000000000000     -0.875340000000000      2.487000000000000
H      -0.588130000000000     -2.829240000000000      1.649520000000000
H      -1.609500000000000     -2.954770000000000      3.128030000000000
H      -2.351260000000000     -3.178050000000000      1.497170000000000
H      -3.172320000000000      1.475390000000000     -0.164170000000000
H      -4.710160000000000      0.570520000000000     -0.431610000000000
H      -4.055550000000000      0.759540000000000      1.239520000000000
Na      1.429070000000000     -9.472220000000000      3.705610000000000
C       0.659870000000000    -12.240800000000000      5.037320000000000
C      -0.895640000000000    -11.752610000000001      3.346240000000000
O       0.084080000000000    -11.239890000000001      4.223390000000000
C       1.873500000000000    -12.869899999999999      4.359950000000000
C      -2.273660000000000    -11.647650000000001      3.985800000000000
H       1.003780000000000    -11.751670000000001      5.972260000000000
H      -0.074590000000000    -13.016690000000001      5.346150000000000
H      -0.883600000000000    -11.131330000000000      2.424410000000000
H      -0.684260000000000    -12.794950000000000      3.017050000000000
H      -2.484870000000000    -10.591659999999999      4.259340000000000
H      -3.045390000000000    -11.997510000000000      3.269640000000000
H      -2.319740000000000    -12.273709999999999      4.900540000000000
H       2.616500000000000    -12.087890000000000      4.099540000000000
H       2.347860000000000    -13.594420000000000      5.054600000000000
H       1.573600000000000    -13.406060000000000      3.436570000000000
C       2.116120000000000     -6.539180000000000      2.535480000000000
C      -0.185860000000000     -6.762950000000000      2.884810000000000
O       1.043370000000000     -7.435180000000000      2.730750000000000
C       2.691810000000000     -6.059430000000000      3.865990000000000
C      -1.250310000000000     -7.789820000000000      3.255920000000000
H       2.916230000000000     -7.098230000000000      2.005470000000000
H       1.844430000000000     -5.686450000000000      1.876200000000000
H      -0.143310000000000     -6.013750000000000      3.704410000000000
H      -0.482930000000000     -6.277240000000000      1.930040000000000
H      -0.984110000000000     -8.296340000000001      4.208680000000000
H      -2.233480000000000     -7.291320000000000      3.379630000000000
H      -1.334000000000000     -8.557710000000000      2.457810000000000
H       2.976910000000000     -6.928240000000000      4.494660000000000
H       3.596210000000000     -5.444170000000000      3.677200000000000
H       1.955930000000000     -5.440210000000000      4.416960000000000
C       3.268040000000000    -10.074260000000001      1.184200000000000
C       4.731190000000000    -10.140610000000001      3.018270000000000
O       3.421460000000000     -9.858560000000001      2.572580000000000
C       2.782890000000000    -11.493430000000000      0.911870000000000
C       5.581910000000000     -8.877420000000001      2.992160000000000
H       2.496090000000000     -9.365420000000000      0.815750000000000
H       4.193680000000000     -9.852130000000001      0.606540000000000
H       4.661000000000000    -10.496190000000000      4.067360000000000
H       5.217890000000000    -10.963310000000000      2.447090000000000
H       5.104730000000000     -8.084590000000000      3.605860000000000
H       6.587020000000000     -9.097580000000001      3.407840000000000
H       5.693910000000000     -8.509710000000000      1.951480000000000
H       1.827040000000000    -11.678300000000000      1.446620000000000
H       2.614880000000000    -11.625260000000001     -0.177600000000000
H       3.537800000000000    -12.232989999999999      1.250050000000000
C       3.306240000000000     -9.099700000000000      6.618510000000000
C       0.979760000000000     -8.875470000000000      6.832670000000000
O       2.058300000000000     -9.140020000000000      5.957040000000000
C       3.686610000000000    -10.482830000000000      7.133810000000000
C       0.664510000000000     -7.385120000000000      6.864880000000000
H       4.069120000000000     -8.779780000000001      5.878240000000000
H       3.338700000000000     -8.347040000000000      7.438030000000000
H       0.087770000000000     -9.410360000000001      6.442330000000000
H       1.150250000000000     -9.267810000000001      7.860420000000000
H       0.443050000000000     -7.022400000000000      5.841600000000000
H      -0.222620000000000     -7.207120000000000      7.506120000000000
H       1.522850000000000     -6.813130000000000      7.272350000000000
H       3.698310000000000    -11.212680000000001      6.297500000000000
H       4.698130000000000    -10.443210000000001      7.589090000000000
H       2.961350000000000    -10.824360000000000      7.900530000000000
Mg     -7.875720000000000     -9.601889999999999      9.283980000000000
H      -5.127130000000000    -10.380590000000000      9.304489999999999
C      -6.198780000000000    -12.006040000000000      8.346830000000001
C      -6.112420000000000    -10.892820000000000      9.380610000000001
C      -5.893770000000000    -11.541079999999999      6.914060000000000
H      -5.459780000000000    -12.788069999999999      8.616949999999999
H      -7.216210000000000    -12.433320000000000      8.408140000000000
H      -6.575710000000000    -10.721159999999999      6.602860000000000
H      -4.846400000000000    -11.174870000000000      6.860110000000000
C      -6.034200000000000    -12.709960000000001      5.938930000000000
H      -6.192910000000000    -11.319680000000000     10.398660000000000
H      -5.364280000000000    -13.544870000000000      6.236970000000000
H      -7.077670000000000    -13.079700000000001      5.931440000000000
H      -5.767950000000000    -12.390680000000000      4.909730000000000
C      -4.581950000000000     -6.669380000000000      5.141610000000000
C      -4.539780000000000     -8.021300000000000      5.416340000000000
C      -4.082220000000000     -8.156319999999999      6.712430000000000
C      -3.871330000000000     -6.942690000000000      7.213310000000000
N      -4.165070000000000     -5.938870000000000      6.260110000000000
C      -3.377780000000000     -6.647200000000000      8.589420000000000
N      -4.314070000000000     -7.190900000000000      9.582050000000001
C      -3.851670000000000     -7.312340000000000     10.984249999999999
H      -4.817300000000000     -8.814550000000001      4.737530000000000
H      -4.898260000000000     -6.226410000000000      4.206580000000000
H      -3.925630000000000     -9.087479999999999      7.244980000000000
H      -2.375760000000000     -7.102580000000000      8.683290000000000
H      -3.300130000000000     -5.549440000000000      8.722730000000000
C      -3.494620000000000     -5.918240000000000     11.532389999999999
C      -4.998220000000000     -7.892880000000000     11.823300000000000
C      -2.632540000000000     -8.257050000000000     11.126130000000000
H      -4.366490000000000     -5.236350000000000     11.430220000000000
H      -3.210630000000000     -5.973230000000000     12.604780000000000
H      -2.638800000000000     -5.480870000000000     10.976880000000000
H      -5.267910000000000     -8.907760000000000     11.461020000000000
H      -4.702780000000000     -7.977870000000000     12.892939999999999
H      -5.891390000000000     -7.239500000000000     11.757210000000001
H      -2.873650000000000     -9.276550000000000     10.757070000000001
H      -1.741390000000000     -7.883600000000000     10.584190000000000
H      -2.331630000000000     -8.337059999999999     12.194540000000000
Mg     -5.950480000000000     -8.261730000000000      8.819100000000001
H      -8.700500000000000     -7.488120000000000      8.777130000000000
C      -7.787260000000000     -6.551480000000000      7.046020000000000
C      -7.727280000000000     -7.031460000000000      8.488329999999999
C      -8.239500000000000     -7.635780000000000      6.055610000000000
H      -8.511469999999999     -5.713050000000000      6.989270000000000
H      -6.780810000000000     -6.179310000000000      6.781180000000000
H      -7.576480000000000     -8.526000000000000      6.101490000000000
H      -9.276410000000000     -7.949790000000000      6.301450000000000
C      -8.239649999999999     -7.081090000000000      4.631130000000000
H      -7.544120000000000     -6.172680000000000      9.162120000000000
H      -8.891730000000001     -6.183730000000000      4.565500000000000
H      -7.213430000000000     -6.794600000000000      4.331220000000000
H      -8.612640000000001     -7.844830000000000      3.917340000000000
C      -9.595960000000000    -12.731710000000000      7.003730000000000
C      -9.641100000000000    -11.414560000000000      6.600460000000000
C      -9.953400000000000    -10.655540000000000      7.712310000000000
C     -10.076940000000000    -11.476950000000000      8.754540000000000
N      -9.866700000000000    -12.819150000000000      8.378360000000001
C     -10.410650000000000    -11.049510000000000     10.148110000000001
N      -9.385230000000000    -10.126150000000001     10.646480000000000
C      -9.692370000000000     -9.325290000000001     11.856420000000000
H      -9.462529999999999    -11.052540000000000      5.596690000000000
H      -9.376500000000000    -13.578440000000001      6.368990000000000
H     -10.073940000000000     -9.581840000000000      7.744960000000000
H     -11.408329999999999    -10.574299999999999     10.113640000000000
H     -10.450080000000000    -11.943700000000000     10.803910000000000
C      -9.952240000000000    -10.268179999999999     13.045629999999999
C      -8.474900000000000     -8.448729999999999     12.179230000000000
C     -10.910980000000000     -8.390860000000000     11.655720000000001
H      -9.080900000000000    -10.942470000000000     13.191839999999999
H     -10.116040000000000     -9.691940000000001     13.981249999999999
H     -10.853960000000001    -10.890829999999999     12.868700000000000
H      -8.273080000000000     -7.743550000000000     11.344989999999999
H      -8.651970000000000     -7.848370000000000     13.099660000000000
H      -7.578010000000000     -9.080220000000001     12.340080000000000
H     -10.737869999999999     -7.683710000000000     10.816890000000001
H     -11.847110000000001     -8.950780000000000     11.462970000000000
H     -11.092960000000000     -7.795070000000000     12.578290000000001

-C 0
6-31g(d,p)
****
-H 0
6-31g(d,p)
****
-Mg 0
6-31g(d,p)
****
-N 0
6-31+g(d,p)
****
-Na 0
6-31g(d,p)
****
-O 0
6-31+g(d,p)
****


