%chk=lowest10_c2_a1_speciation3_speciation3_speciationDFT45_rank07_E217.61.chk
%nprocshared=20
%mem=40GB
#p opt=loose PM7/gen scf=xqc 

lowest10_c2_a1_speciation3_speciation3_speciationDFT45_rank07_E217.61 DFT input

0 1
Na     -0.031970000000000      0.146790000000000     -0.355630000000000
C      -2.486290000000000      1.439810000000000      1.111000000000000
C      -2.368000000000000      2.326480000000000     -1.064060000000000
O      -1.681070000000000      1.655910000000000     -0.029890000000000
C      -3.238690000000000      0.114920000000000      1.019530000000000
C      -2.176750000000000      3.832150000000000     -0.933910000000000
H      -1.809520000000000      1.386640000000000      1.988620000000000
H      -3.182160000000000      2.283330000000000      1.308520000000000
H      -1.926670000000000      1.998590000000000     -2.030460000000000
H      -3.446850000000000      2.059240000000000     -1.111560000000000
H      -1.093950000000000      4.081150000000000     -0.943450000000000
H      -2.672000000000000      4.345380000000000     -1.783760000000000
H      -2.621970000000000      4.195830000000000      0.014650000000000
H      -2.528680000000000     -0.725020000000000      0.872400000000000
H      -3.796200000000000     -0.055480000000000      1.964580000000000
H      -3.961330000000000      0.130320000000000      0.178670000000000
C       2.588970000000000     -1.019680000000000     -1.759060000000000
C       2.412640000000000      1.282410000000000     -2.156160000000000
O       1.740350000000000      0.107520000000000     -1.765810000000000
C       3.342630000000000     -1.148760000000000     -0.436660000000000
C       1.457240000000000      2.458710000000000     -1.979300000000000
H       1.938730000000000     -1.914430000000000     -1.859530000000000
H       3.280000000000000     -1.037610000000000     -2.630110000000000
H       3.303970000000000      1.474740000000000     -1.521440000000000
H       2.703300000000000      1.223550000000000     -3.227020000000000
H       1.144720000000000      2.546770000000000     -0.916430000000000
H       1.950810000000000      3.404700000000000     -2.284510000000000
H       0.550150000000000      2.309530000000000     -2.602610000000000
H       2.630140000000000     -1.149240000000000      0.413800000000000
H       3.907480000000000     -2.104370000000000     -0.425690000000000
H       4.061600000000000     -0.315530000000000     -0.306290000000000
C      -1.088240000000000     -2.350360000000000     -1.977950000000000
C      -0.777110000000000     -3.123200000000000      0.219760000000000
O      -0.609130000000000     -2.050480000000000     -0.682390000000000
C      -2.545670000000000     -1.927060000000000     -2.130090000000000
C       0.463720000000000     -4.008030000000000      0.235970000000000
H      -0.482220000000000     -1.766710000000000     -2.703680000000000
H      -0.953010000000000     -3.420850000000000     -2.250090000000000
H      -0.911800000000000     -2.691760000000000      1.233360000000000
H      -1.693420000000000     -3.718740000000000      0.015690000000000
H       1.361570000000000     -3.405100000000000      0.488490000000000
H       0.341310000000000     -4.804320000000000      0.999440000000000
H       0.614780000000000     -4.480200000000000     -0.756280000000000
H      -2.654210000000000     -0.841810000000000     -1.919030000000000
H      -2.880320000000000     -2.121800000000000     -3.170850000000000
H      -3.192230000000000     -2.499870000000000     -1.433920000000000
C       0.903900000000000     -0.679470000000000      2.851530000000000
C       1.127960000000000      1.578170000000000      2.237390000000000
O       0.717190000000000      0.285640000000000      1.837230000000000
C      -0.340920000000000     -0.797920000000000      3.724830000000000
C       2.594050000000000      1.815460000000000      1.893340000000000
H       1.073890000000000     -1.657320000000000      2.354560000000000
H       1.809140000000000     -0.487030000000000      3.468720000000000
H       0.519150000000000      2.315100000000000      1.670980000000000
H       0.933380000000000      1.778090000000000      3.314290000000000
H       2.759000000000000      1.669200000000000      0.807640000000000
H       2.873230000000000      2.857050000000000      2.157150000000000
H       3.246260000000000      1.115580000000000      2.453800000000000
H      -1.227630000000000     -1.040710000000000      3.102410000000000
H      -0.194950000000000     -1.609520000000000      4.467950000000000
H      -0.528750000000000      0.152420000000000      4.264880000000000
Na    -12.840170000000001     -9.728940000000000     -0.068060000000000
C     -10.289750000000000    -11.404330000000000     -0.918910000000000
C     -11.139699999999999    -10.294000000000000     -2.807130000000000
O     -11.405290000000001    -10.763470000000000     -1.502850000000000
C      -9.410550000000001    -10.406450000000000     -0.170730000000000
C     -11.541960000000000    -11.345720000000000     -3.831640000000000
H     -10.677110000000001    -12.139670000000001     -0.183420000000000
H      -9.696790000000000    -11.988060000000001     -1.656680000000000
H     -11.757260000000000     -9.384490000000000     -2.972470000000000
H     -10.081830000000000     -9.978669999999999     -2.950350000000000
H     -12.614190000000001    -11.607460000000000     -3.704250000000000
H     -11.385660000000000    -10.948850000000000     -4.855870000000000
H     -10.928780000000000    -12.260999999999999     -3.701260000000000
H     -10.007899999999999     -9.865119999999999      0.591850000000000
H      -8.588680000000000    -10.950210000000000      0.340780000000000
H      -8.967980000000001     -9.670760000000000     -0.872720000000000
C     -15.555809999999999     -8.212970000000000      0.803960000000000
C     -15.848649999999999     -9.318460000000000     -1.236440000000000
O     -14.920489999999999     -8.806300000000000     -0.307820000000000
C     -15.873379999999999     -9.246330000000000      1.882790000000000
C     -15.081480000000001    -10.083840000000000     -2.308960000000000
H     -14.838870000000000     -7.484290000000000      1.238240000000000
H     -16.458680000000001     -7.628880000000000      0.518270000000000
H     -16.555940000000000    -10.030139999999999     -0.758830000000000
H     -16.403099999999998     -8.488720000000001     -1.725750000000000
H     -14.512490000000000    -10.922169999999999     -1.852430000000000
H     -15.785980000000000    -10.498200000000001     -3.059860000000000
H     -14.365430000000000     -9.407000000000000     -2.821580000000000
H     -14.953889999999999     -9.798600000000000      2.166670000000000
H     -16.271280000000001     -8.731380000000000      2.782020000000000
H     -16.634760000000000     -9.969650000000000      1.528210000000000
C     -11.877020000000000     -6.782700000000000      0.634650000000000
C     -11.459540000000001     -8.032069999999999      2.576260000000000
O     -12.038530000000000     -8.025499999999999      1.289040000000000
C     -10.603999999999999     -6.776190000000000     -0.204640000000000
C     -12.492130000000000     -7.642430000000000      3.625490000000000
H     -12.743930000000001     -6.645520000000000     -0.045980000000000
H     -11.894439999999999     -5.918540000000000      1.336800000000000
H     -11.111170000000000     -9.064310000000001      2.788030000000000
H     -10.560650000000001     -7.385530000000000      2.644340000000000
H     -13.364340000000000     -8.327320000000000      3.572180000000000
H     -12.039740000000000     -7.712800000000000      4.636580000000000
H     -12.838950000000001     -6.602170000000000      3.457060000000000
H     -10.629040000000000     -7.607340000000000     -0.940990000000000
H     -10.527710000000001     -5.814230000000000     -0.753810000000000
H      -9.709940000000000     -6.890210000000000      0.442850000000000
C     -12.733900000000000    -11.820670000000000      2.716000000000000
C     -13.472810000000001    -12.779460000000000      0.705220000000000
O     -12.986079999999999    -11.614000000000001      1.341290000000000
C     -11.292970000000000    -12.266130000000000      2.937860000000000
C     -14.995469999999999    -12.823110000000000      0.749710000000000
H     -12.884580000000000    -10.850930000000000      3.234720000000000
H     -13.448090000000001    -12.534160000000000      3.185080000000000
H     -13.157999999999999    -12.740040000000000     -0.359390000000000
H     -13.036339999999999    -13.714740000000001      1.122210000000000
H     -15.414339999999999    -11.910280000000000      0.281540000000000
H     -15.358480000000000    -13.710200000000000      0.189830000000000
H     -15.353970000000000    -12.887400000000000      1.797250000000000
H     -10.591060000000001    -11.520980000000000      2.508480000000000
H     -11.097060000000001    -12.356920000000001      4.026590000000000
H     -11.112810000000000    -13.249840000000001      2.457860000000000
Mg     -6.289800000000000     -7.953500000000000      5.509270000000000
H      -8.712350000000001     -6.595260000000000      3.685870000000000
C      -8.611170000000000     -5.778310000000000      5.720590000000000
C      -8.444319999999999     -6.904150000000000      4.713430000000000
C      -7.766150000000000     -4.567410000000000      5.318480000000000
H      -9.684189999999999     -5.498020000000000      5.763850000000000
H      -8.290190000000001     -6.140840000000000      6.721610000000000
H      -6.695150000000000     -4.853510000000000      5.282240000000000
H      -8.075130000000000     -4.217070000000000      4.310150000000000
C      -7.935450000000000     -3.423000000000000      6.311460000000000
H      -9.006620000000000     -7.809020000000000      5.027430000000000
H      -9.002750000000001     -3.120820000000000      6.367300000000000
H      -7.588400000000000     -3.731060000000000      7.320670000000000
H      -7.334690000000000     -2.550240000000000      5.979170000000000
C      -5.291530000000000     -5.911140000000000      7.656500000000000
C      -4.215220000000000     -5.090910000000000      7.948540000000000
C      -3.277760000000000     -5.304310000000000      6.957600000000000
C      -3.824380000000000     -6.242840000000000      6.113500000000000
N      -5.044860000000000     -6.611700000000000      6.540860000000000
C      -3.233190000000000     -6.818600000000000      4.890820000000000
N      -4.268310000000000     -6.857500000000000      3.850910000000000
C      -4.234080000000000     -5.832510000000000      2.805890000000000
H      -4.129550000000000     -4.409590000000000      8.782370000000000
H      -6.212940000000000     -5.972990000000000      8.222120000000000
H      -2.306750000000000     -4.831610000000000      6.865830000000000
H      -3.000900000000000     -7.856930000000000      5.164400000000000
H      -2.276780000000000     -6.347290000000000      4.582910000000000
C      -3.156460000000000     -6.198970000000000      1.771200000000000
C      -5.612940000000000     -5.844070000000000      2.125690000000000
C      -3.995970000000000     -4.427290000000000      3.389080000000000
H      -3.362690000000000     -7.203460000000000      1.337520000000000
H      -3.140970000000000     -5.457660000000000      0.946570000000000
H      -2.150090000000000     -6.228310000000000      2.236510000000000
H      -6.411210000000000     -5.611470000000000      2.860950000000000
H      -5.659860000000000     -5.105820000000000      1.298970000000000
H      -5.838250000000000     -6.839500000000000      1.705800000000000
H      -4.761940000000000     -4.203910000000000      4.160180000000000
H      -2.995030000000000     -4.341210000000000      3.856480000000000
H      -4.064290000000000     -3.661920000000000      2.589310000000000
Mg     -3.819400000000000     -9.268940000000001      3.638910000000000
H      -1.732740000000000    -11.103050000000000      3.209400000000000
C      -0.728970000000000     -9.175929999999999      3.555860000000000
C      -1.884360000000000    -10.023619999999999      3.009980000000000
C      -0.460380000000000     -9.447210000000000      5.040300000000000
H       0.193440000000000     -9.424810000000001      2.988920000000000
H      -0.959630000000000     -8.101500000000000      3.388150000000000
H      -1.352460000000000     -9.233739999999999      5.649130000000000
H      -0.193240000000000    -10.518010000000000      5.168360000000000
C       0.680070000000000     -8.583150000000000      5.571110000000000
H      -1.927890000000000     -9.868610000000000      1.910150000000000
H       1.610880000000000     -8.768670000000000      4.994990000000000
H       0.412960000000000     -7.506600000000000      5.502090000000000
H       0.866130000000000     -8.832750000000001      6.637580000000000
C      -4.699030000000000    -12.002770000000000      1.094090000000000
C      -4.833630000000000    -10.757680000000001      0.523480000000000
C      -5.551440000000000     -9.978460000000000      1.407770000000000
C      -5.830040000000000    -10.710509999999999      2.487730000000000
N      -5.317000000000000    -12.017420000000000      2.355550000000000
C      -6.540530000000000    -10.198880000000001      3.711830000000000
N      -5.555720000000000     -9.761120000000000      4.723480000000000
C      -5.380900000000000    -10.626680000000000      5.906650000000000
H      -4.437290000000000    -10.450290000000001     -0.435420000000000
H      -4.185010000000000    -12.843620000000000      0.650920000000000
H      -5.809010000000000     -8.945410000000001      1.261450000000000
H      -7.285400000000000    -10.937870000000000      4.069500000000000
H      -7.124660000000000     -9.302519999999999      3.412610000000000
C      -5.007370000000000    -12.065659999999999      5.514540000000000
C      -4.241320000000000    -10.042680000000001      6.748590000000000
C      -6.664870000000000    -10.612900000000000      6.772220000000000
H      -4.083710000000000    -12.066610000000001      4.897060000000000
H      -4.824540000000000    -12.673180000000000      6.426510000000000
H      -5.823630000000000    -12.555199999999999      4.946490000000000
H      -4.463700000000000     -9.001650000000000      7.049610000000000
H      -4.080770000000000    -10.634650000000001      7.673350000000000
H      -3.307090000000000    -10.049420000000000      6.161770000000000
H      -6.916950000000000     -9.578780000000000      7.091810000000000
H      -7.543130000000000    -11.020099999999999      6.234580000000000
H      -6.523170000000000    -11.219569999999999      7.690330000000000

-C 0
6-31g(d,p)
****
-H 0
6-31g(d,p)
****
-Mg 0
6-31g(d,p)
****
-N 0
6-31+g(d,p)
****
-Na 0
6-31g(d,p)
****
-O 0
6-31+g(d,p)
****


