%chk=lowest10_c2_a1_speciation0_speciation3_speciationDFT11_rank03_E166.55.chk
%nprocshared=20
%mem=40GB
#p opt=loose PM7/gen scf=xqc 

lowest10_c2_a1_speciation0_speciation3_speciationDFT11_rank03_E166.55 DFT input

0 1
Na     -0.112630000000000      0.366570000000000      0.013840000000000
C       0.065660000000000     -0.403010000000000      3.063120000000000
C      -0.475830000000000      1.877640000000000      2.893730000000000
O       0.060050000000000      0.746610000000000      2.242040000000000
C      -1.237970000000000     -1.184230000000000      2.929660000000000
C       0.636760000000000      2.668240000000000      3.568470000000000
H       0.892370000000000     -1.055810000000000      2.714210000000000
H       0.285500000000000     -0.167850000000000      4.127120000000000
H      -0.947590000000000      2.521970000000000      2.120220000000000
H      -1.282980000000000      1.621810000000000      3.615860000000000
H       1.404480000000000      2.957380000000000      2.819190000000000
H       0.216310000000000      3.586180000000000      4.028190000000000
H       1.116870000000000      2.056010000000000      4.359150000000000
H      -1.419610000000000     -1.452670000000000      1.868420000000000
H      -1.167930000000000     -2.118520000000000      3.525260000000000
H      -2.094030000000000     -0.586840000000000      3.303900000000000
C      -0.072430000000000      1.167790000000000     -3.094450000000000
C       1.037590000000000      2.787040000000000     -1.819600000000000
O       0.130310000000000      1.709120000000000     -1.807220000000000
C       0.984190000000000      0.118480000000000     -3.434070000000000
C       1.314750000000000      3.194770000000000     -0.376390000000000
H      -1.058020000000000      0.656050000000000     -3.079580000000000
H      -0.140380000000000      1.951660000000000     -3.880700000000000
H       2.007770000000000      2.500860000000000     -2.279410000000000
H       0.596370000000000      3.657050000000000     -2.351910000000000
H       1.756410000000000      2.344850000000000      0.187200000000000
H       2.024350000000000      4.047660000000000     -0.348800000000000
H       0.369390000000000      3.496800000000000      0.122270000000000
H       1.016860000000000     -0.662110000000000     -2.646310000000000
H       0.728510000000000     -0.363300000000000     -4.400870000000000
H       1.987300000000000      0.580490000000000     -3.527550000000000
C      -3.139320000000000      0.091740000000000     -0.880190000000000
C      -2.268950000000000     -2.086770000000000     -0.995630000000000
O      -1.986260000000000     -0.719870000000000     -0.784030000000000
C      -3.788470000000000      0.271570000000000      0.487580000000000
C      -2.089480000000000     -2.445310000000000     -2.465500000000000
H      -2.818420000000000      1.090790000000000     -1.245270000000000
H      -3.874790000000000     -0.289050000000000     -1.623900000000000
H      -1.541490000000000     -2.676440000000000     -0.399900000000000
H      -3.277540000000000     -2.383360000000000     -0.629780000000000
H      -1.062500000000000     -2.186360000000000     -2.799120000000000
H      -2.247050000000000     -3.535150000000000     -2.603560000000000
H      -2.821390000000000     -1.892740000000000     -3.089630000000000
H      -3.059720000000000      0.710860000000000      1.201630000000000
H      -4.657400000000000      0.956830000000000      0.397580000000000
H      -4.141160000000000     -0.703800000000000      0.881520000000000
C       1.636600000000000     -2.593890000000000     -0.387920000000000
C       2.836420000000000     -0.772200000000000      0.481250000000000
O       1.584620000000000     -1.243360000000000      0.022650000000000
C       1.309510000000000     -3.524360000000000      0.774200000000000
C       3.639350000000000     -0.165620000000000     -0.663210000000000
H       0.866660000000000     -2.734840000000000     -1.174990000000000
H       2.608450000000000     -2.866730000000000     -0.856290000000000
H       2.643010000000000      0.026850000000000      1.228480000000000
H       3.425350000000000     -1.554450000000000      1.010120000000000
H       3.060710000000000      0.648590000000000     -1.142570000000000
H       4.587620000000000      0.255700000000000     -0.268960000000000
H       3.876850000000000     -0.935300000000000     -1.425370000000000
H       0.315160000000000     -3.273750000000000      1.199370000000000
H       1.289550000000000     -4.571920000000000      0.411420000000000
H       2.075680000000000     -3.436110000000000      1.571270000000000
Na     12.657810000000000    -14.840009999999999     -1.747630000000000
C       9.458729999999999    -13.659610000000001     -0.748810000000000
C      10.039130000000000    -12.659750000000001     -2.746030000000000
O      10.447050000000001    -13.569080000000000     -1.749700000000000
C       9.935150000000000    -14.643310000000000      0.310030000000000
C      11.126469999999999    -12.587070000000001     -3.807870000000000
H       9.300380000000001    -12.673380000000000     -0.255640000000000
H       8.501690000000000    -14.043880000000000     -1.169610000000000
H       9.100370000000000    -13.003530000000000     -3.237450000000000
H       9.908820000000000    -11.639239999999999     -2.320820000000000
H      11.286659999999999    -13.590830000000000     -4.256500000000000
H      10.829710000000000    -11.876939999999999     -4.607890000000000
H      12.078500000000000    -12.240209999999999     -3.351920000000000
H      10.889379999999999    -14.288460000000001      0.755200000000000
H       9.174569999999999    -14.736400000000000      1.113200000000000
H      10.101390000000000    -15.642010000000001     -0.147810000000000
Mg      0.939040000000000     -9.908140000000000     -2.605430000000000
H       2.597340000000000     -8.308310000000001     -0.938000000000000
C       0.568750000000000     -7.937830000000000     -0.260000000000000
C       1.574860000000000     -8.219160000000000     -1.367600000000000
C       0.622890000000000     -8.957470000000001      0.886870000000000
H       0.786970000000000     -6.936850000000000      0.163600000000000
H      -0.436380000000000     -7.921740000000000     -0.719360000000000
H       0.459260000000000     -9.990600000000001      0.513030000000000
H       1.618860000000000     -8.906860000000000      1.375590000000000
C      -0.436520000000000     -8.629230000000000      1.938780000000000
H       1.580860000000000     -7.376140000000000     -2.085690000000000
H      -0.295660000000000     -7.595190000000000      2.320870000000000
H      -1.450610000000000     -8.710910000000000      1.500460000000000
H      -0.364610000000000     -9.335699999999999      2.792040000000000
C       3.882110000000000    -13.177289999999999      1.546440000000000
C       3.205930000000000    -11.989060000000000      1.771470000000000
C       3.861890000000000    -11.021610000000001      1.037210000000000
C       4.853660000000000    -11.634720000000000      0.408950000000000
N       4.861390000000000    -13.001130000000000      0.740580000000000
C       5.835880000000000    -10.978450000000000     -0.510260000000000
N       5.126840000000000    -10.377300000000000     -1.646150000000000
C       5.838340000000000     -9.370480000000001     -2.470050000000000
H       2.331750000000000    -11.846230000000000      2.393460000000000
H       3.631680000000000    -14.137990000000000      1.973170000000000
H       3.622810000000000     -9.970260000000000      0.970830000000000
H       6.376920000000000    -10.219239999999999      0.083870000000000
H       6.556240000000000    -11.735950000000001     -0.883360000000000
C       7.071900000000000    -10.018670000000000     -3.123640000000000
C       4.887810000000000     -8.891679999999999     -3.575960000000000
C       6.272310000000000     -8.131790000000001     -1.648730000000000
H       6.765740000000000    -10.908280000000000     -3.715390000000000
H       7.585430000000000     -9.302479999999999     -3.800400000000000
H       7.800830000000000    -10.341730000000000     -2.352570000000000
H       3.994600000000000     -8.400990000000000     -3.133670000000000
H       5.390980000000000     -8.152380000000001     -4.238640000000000
H       4.555670000000000     -9.748500000000000     -4.196100000000000
H       5.395010000000000     -7.636760000000000     -1.180720000000000
H       7.004960000000000     -8.384150000000000     -0.857200000000000
H       6.775470000000000     -7.390950000000000     -2.309890000000000
Mg      3.033390000000000    -10.517899999999999     -1.607180000000000
H       1.370290000000000    -12.119320000000000     -3.269610000000000
C       2.048270000000000    -13.440200000000001     -1.685730000000000
C       2.280520000000000    -12.286670000000001     -2.651970000000000
C       0.790020000000000    -13.267500000000000     -0.822210000000000
H       1.933210000000000    -14.372780000000001     -2.276320000000000
H       2.947740000000000    -13.526750000000000     -1.049120000000000
H       0.827270000000000    -12.319990000000001     -0.243540000000000
H      -0.105450000000000    -13.251099999999999     -1.478890000000000
C       0.644880000000000    -14.442040000000000      0.145180000000000
H       3.113660000000000    -12.538510000000000     -3.336590000000000
H       0.614230000000000    -15.402240000000001     -0.413390000000000
H       1.500100000000000    -14.467440000000000      0.848810000000000
H      -0.291400000000000    -14.343840000000000      0.733440000000000
C      -2.842730000000000     -9.301470000000000     -0.853200000000000
C      -2.269830000000000    -10.562030000000000     -0.903130000000000
C      -1.730520000000000    -10.696000000000000     -2.166730000000000
C      -1.969440000000000     -9.557539999999999     -2.799830000000000
N      -2.678510000000000     -8.680040000000000     -1.960530000000000
C      -1.562800000000000     -9.244460000000000     -4.205950000000000
N      -0.102020000000000     -9.315709999999999     -4.328500000000000
C       0.488230000000000     -9.414450000000000     -5.685410000000000
H      -2.243000000000000    -11.295809999999999     -0.108010000000000
H      -3.355940000000000     -8.873080000000000     -0.004170000000000
H      -1.208420000000000    -11.549920000000000     -2.572900000000000
H      -2.066140000000000     -9.980689999999999     -4.859230000000000
H      -1.905340000000000     -8.222680000000000     -4.470460000000000
C       0.125570000000000     -8.158500000000000     -6.498420000000000
C       2.014880000000000     -9.486240000000000     -5.544240000000000
C       0.022130000000000    -10.680920000000000     -6.444460000000000
H       0.461250000000000     -7.246900000000000     -5.958440000000000
H       0.613000000000000     -8.178110000000000     -7.496850000000000
H      -0.971070000000000     -8.091240000000001     -6.656010000000000
H       2.309080000000000    -10.395130000000000     -4.977350000000000
H       2.503640000000000     -9.533110000000001     -6.543160000000000
H       2.395050000000000     -8.592079999999999     -5.010200000000000
H       0.289000000000000    -11.602000000000000     -5.884050000000000
H      -1.068840000000000    -10.682380000000000     -6.636160000000000
H       0.510650000000000    -10.730190000000000     -7.443510000000000

-C 0
6-31g(d,p)
****
-H 0
6-31g(d,p)
****
-Mg 0
6-31g(d,p)
****
-N 0
6-31+g(d,p)
****
-Na 0
6-31g(d,p)
****
-O 0
6-31+g(d,p)
****


