%chk=lowest10_c2_a1_speciation3_speciation3_speciationDFT11_rank04_E202.34.chk
%nprocshared=20
%mem=40GB
#p opt=loose PM7/gen scf=xqc 

lowest10_c2_a1_speciation3_speciation3_speciationDFT11_rank04_E202.34 DFT input

0 1
Na      0.144340000000000     -0.275650000000000      0.200220000000000
C       2.491600000000000      0.253770000000000     -1.812120000000000
C       3.200020000000000     -1.357700000000000     -0.252260000000000
O       2.275740000000000     -0.332330000000000     -0.544550000000000
C       1.721530000000000     -0.482220000000000     -2.905170000000000
C       4.408750000000000     -0.785530000000000      0.477310000000000
H       2.106460000000000      1.293340000000000     -1.766290000000000
H       3.570030000000000      0.335140000000000     -2.067080000000000
H       2.695680000000000     -2.085330000000000      0.420450000000000
H       3.507540000000000     -1.932990000000000     -1.153370000000000
H       4.083590000000000     -0.262290000000000      1.402000000000000
H       5.100980000000000     -1.607580000000000      0.752880000000000
H       4.946020000000000     -0.066050000000000     -0.173860000000000
H       0.638970000000000     -0.512700000000000     -2.663500000000000
H       1.853180000000000      0.052950000000000     -3.869180000000000
H       2.096610000000000     -1.519250000000000     -3.020630000000000
C      -2.174570000000000     -0.649500000000000      2.362010000000000
C      -0.092760000000000     -0.492560000000000      3.425010000000000
O      -0.774040000000000     -0.740920000000000      2.217240000000000
C      -2.663560000000000      0.789930000000000      2.210650000000000
C       1.403700000000000     -0.461760000000000      3.130190000000000
H      -2.623990000000000     -1.241260000000000      1.536610000000000
H      -2.535690000000000     -1.109930000000000      3.307610000000000
H      -0.371320000000000      0.491710000000000      3.858240000000000
H      -0.290150000000000     -1.306150000000000      4.153820000000000
H       1.637210000000000      0.344900000000000      2.402130000000000
H       1.975970000000000     -0.275910000000000      4.062690000000000
H       1.726960000000000     -1.432490000000000      2.697910000000000
H      -2.307520000000000      1.218700000000000      1.251290000000000
H      -3.773590000000000      0.804990000000000      2.214350000000000
H      -2.302230000000000      1.422280000000000      3.045960000000000
C      -1.488070000000000     -2.765250000000000     -0.860110000000000
C      -2.313560000000000     -0.919240000000000     -2.059450000000000
O      -1.467880000000000     -1.360820000000000     -1.018730000000000
C      -0.392760000000000     -3.422140000000000     -1.693900000000000
C      -3.699970000000000     -0.588630000000000     -1.519000000000000
H      -1.285310000000000     -2.985600000000000      0.209970000000000
H      -2.482860000000000     -3.209600000000000     -1.086040000000000
H      -1.872410000000000      0.008970000000000     -2.478580000000000
H      -2.372200000000000     -1.639990000000000     -2.905130000000000
H      -3.626540000000000      0.169270000000000     -0.710640000000000
H      -4.328510000000000     -0.178190000000000     -2.336560000000000
H      -4.185020000000000     -1.500670000000000     -1.115180000000000
H       0.601550000000000     -3.015570000000000     -1.410880000000000
H      -0.394320000000000     -4.516840000000000     -1.510280000000000
H      -0.565580000000000     -3.241810000000000     -2.774750000000000
C      -1.038020000000000      2.699150000000000     -1.058340000000000
C       0.805290000000000      2.828460000000000      0.394110000000000
O      -0.108860000000000      1.981120000000000     -0.273470000000000
C      -0.517860000000000      2.887850000000000     -2.479580000000000
C       0.277730000000000      3.225110000000000      1.768310000000000
H      -1.969540000000000      2.097460000000000     -1.106390000000000
H      -1.324580000000000      3.673320000000000     -0.604290000000000
H       1.747650000000000      2.258190000000000      0.539990000000000
H       1.076070000000000      3.726540000000000     -0.203930000000000
H       0.068400000000000      2.319950000000000      2.371780000000000
H       1.040260000000000      3.834860000000000      2.296650000000000
H      -0.654370000000000      3.818080000000000      1.673960000000000
H      -0.284190000000000      1.904480000000000     -2.938870000000000
H      -1.293860000000000      3.391660000000000     -3.092930000000000
H       0.398770000000000      3.512170000000000     -2.478820000000000
Na      8.850500000000000     -8.402430000000001      6.062790000000000
C       7.211750000000000    -10.635600000000000      7.591010000000000
C       7.316220000000000    -11.197390000000000      5.312400000000000
O       7.430630000000000    -10.171400000000000      6.274790000000000
C       8.512160000000000    -11.113930000000000      8.229540000000000
C       5.892980000000000    -11.249919999999999      4.773190000000000
H       6.832020000000000     -9.779439999999999      8.186320000000000
H       6.426340000000000    -11.421120000000000      7.642970000000000
H       8.004659999999999    -10.953810000000001      4.474160000000000
H       7.637860000000000    -12.192170000000001      5.694970000000000
H       5.611360000000000    -10.261910000000000      4.350000000000000
H       5.823910000000000    -12.018280000000001      3.975900000000000
H       5.184700000000000    -11.509270000000001      5.586730000000000
H       9.270270000000000    -10.303789999999999      8.211020000000000
H       8.320399999999999    -11.397720000000000      9.285560000000000
H       8.912570000000001    -11.996760000000000      7.690760000000000
C      10.327480000000000     -5.989210000000000      4.508540000000000
C       8.430199999999999     -6.683920000000000      3.329350000000000
O       9.374919999999999     -7.013850000000000      4.321790000000000
C       9.834099999999999     -4.943520000000000      5.506290000000000
C       7.353170000000000     -7.763230000000000      3.313810000000000
H      11.234930000000000     -6.462440000000000      4.940180000000000
H      10.646089999999999     -5.522230000000000      3.550210000000000
H       7.930280000000000     -5.715310000000000      3.545370000000000
H       8.914669999999999     -6.656870000000000      2.329390000000000
H       6.846390000000000     -7.818500000000000      4.301260000000000
H       6.595550000000000     -7.534030000000000      2.536490000000000
H       7.807930000000000     -8.752060000000000      3.092520000000000
H       9.545000000000000     -5.430910000000000      6.460170000000000
H      10.646530000000000     -4.215270000000000      5.710700000000000
H       8.961740000000001     -4.390910000000000      5.103560000000000
C      11.887359999999999     -9.326549999999999      5.939280000000000
C      11.641510000000000     -8.361499999999999      8.064890000000000
O      11.037500000000000     -8.611590000000000      6.813450000000000
C      11.651529999999999    -10.826969999999999      6.068690000000000
C      12.339700000000001     -7.007760000000000      8.054110000000000
H      11.635669999999999     -9.022910000000000      4.900720000000000
H      12.963320000000000     -9.078600000000000      6.082600000000000
H      10.836399999999999     -8.336050000000000      8.828490000000000
H      12.339090000000001     -9.169790000000001      8.380890000000001
H      11.617319999999999     -6.209040000000000      7.783710000000000
H      12.751099999999999     -6.793810000000000      9.062310000000000
H      13.169570000000000     -7.007950000000000      7.317860000000000
H      10.586169999999999    -11.064310000000001      5.862590000000000
H      12.286759999999999    -11.366680000000001      5.335370000000000
H      11.910370000000000    -11.173640000000001      7.090440000000000
C       8.171210000000000     -6.560590000000000      8.937799999999999
C       6.377460000000000     -6.905690000000000      7.463650000000000
O       7.742800000000000     -7.158670000000000      7.731500000000000
C       8.000570000000000     -7.524270000000000     10.106370000000000
C       6.216280000000000     -5.637690000000000      6.634320000000000
H       9.251200000000001     -6.326600000000000      8.832039999999999
H       7.665470000000000     -5.590770000000000      9.144500000000001
H       5.984990000000000     -7.759550000000000      6.871140000000000
H       5.756850000000000     -6.858540000000000      8.386550000000000
H       6.795760000000000     -5.723740000000000      5.693900000000000
H       5.146180000000000     -5.492930000000000      6.381650000000000
H       6.574930000000000     -4.753280000000000      7.199190000000000
H       8.550890000000001     -8.467650000000001      9.907850000000000
H       8.405170000000000     -7.061100000000000     11.030379999999999
H       6.927680000000000     -7.758580000000000     10.262800000000000
Mg     -1.684760000000000     -9.071199999999999      3.556920000000000
H       0.217610000000000     -9.028800000000000      5.691480000000000
C       0.025640000000000    -11.107379999999999      5.099800000000000
C      -0.568390000000000     -9.724250000000000      5.320310000000000
C       1.274540000000000    -11.107430000000001      4.203770000000000
H       0.313790000000000    -11.521830000000000      6.087490000000000
H      -0.767710000000000    -11.738300000000001      4.659740000000000
H       1.058730000000000    -10.658300000000001      3.210810000000000
H       2.080560000000000    -10.521179999999999      4.693890000000000
C       1.784580000000000    -12.535399999999999      4.010550000000000
H      -1.363610000000000     -9.774800000000001      6.088350000000000
H       2.000810000000000    -13.004870000000000      4.994160000000000
H       1.024400000000000    -13.146360000000000      3.486970000000000
H       2.714130000000000    -12.536870000000000      3.403920000000000
C       3.704080000000000     -6.953850000000000      1.874050000000000
C       3.480180000000000     -8.089350000000000      2.632800000000000
C       2.894100000000000     -7.668310000000000      3.809870000000000
C       2.770310000000000     -6.352430000000000      3.713480000000000
N       3.288560000000000     -5.905030000000000      2.488880000000000
C       2.172830000000000     -5.457090000000000      4.754750000000000
N       0.783620000000000     -5.851260000000000      5.010470000000000
C       0.125280000000000     -5.350950000000000      6.241810000000000
H       3.707450000000000     -9.111179999999999      2.353520000000000
H       4.152900000000000     -6.922130000000000      0.893700000000000
H       2.581540000000000     -8.276970000000000      4.644470000000000
H       2.796180000000000     -5.548610000000000      5.661710000000000
H       2.198410000000000     -4.408330000000000      4.392580000000000
C       0.076900000000000     -3.812890000000000      6.210430000000000
C      -1.311900000000000     -5.888440000000000      6.275430000000000
C       0.840470000000000     -5.825030000000000      7.531030000000000
H      -0.435860000000000     -3.472310000000000      5.285870000000000
H      -0.474290000000000     -3.414480000000000      7.089010000000000
H       1.100040000000000     -3.382600000000000      6.226730000000000
H      -1.310160000000000     -6.998610000000000      6.314930000000000
H      -1.853800000000000     -5.515000000000000      7.173160000000000
H      -1.865540000000000     -5.562840000000000      5.371820000000000
H       0.864490000000000     -6.933940000000000      7.589510000000000
H       1.876820000000000     -5.441420000000000      7.607210000000000
H       0.303780000000000     -5.443430000000000      8.428640000000000
Mg      0.086670000000000     -7.515100000000000      3.937480000000000
H      -1.798800000000000     -7.572040000000000      1.790010000000000
C       0.117670000000000     -7.082330000000000      0.899490000000000
C      -0.878150000000000     -7.000970000000000      2.045790000000000
C       0.427650000000000     -8.519679999999999      0.452570000000000
H      -0.308490000000000     -6.539340000000000      0.031950000000000
H       1.039660000000000     -6.571070000000000      1.229680000000000
H       0.814440000000000     -9.131140000000000      1.295670000000000
H      -0.499620000000000     -8.993090000000000      0.064670000000000
C       1.459500000000000     -8.508310000000000     -0.675250000000000
H      -1.170210000000000     -5.947160000000000      2.216050000000000
H       1.094240000000000     -7.894590000000000     -1.526670000000000
H       2.415820000000000     -8.081370000000000     -0.315230000000000
H       1.650260000000000     -9.540170000000000     -1.037160000000000
C      -1.496020000000000    -13.133310000000000      2.373390000000000
C      -1.169120000000000    -12.100270000000000      1.521610000000000
C      -2.125800000000000    -11.116239999999999      1.684020000000000
C      -2.990990000000000    -11.527210000000000      2.610790000000000
N      -2.655990000000000    -12.808389999999999      3.093970000000000
C      -4.178850000000000    -10.749700000000001      3.080210000000000
N      -3.743960000000000     -9.471760000000000      3.654600000000000
C      -4.763810000000000     -8.415810000000000      3.865970000000000
H      -0.317950000000000    -12.074310000000001      0.854270000000000
H      -0.944720000000000    -14.055899999999999      2.486700000000000
H      -2.171720000000000    -10.171320000000000      1.161060000000000
H      -4.839570000000000    -10.602280000000000      2.206110000000000
H      -4.715390000000000    -11.336880000000001      3.853900000000000
C      -5.834190000000000     -8.923660000000000      4.849460000000000
C      -4.072940000000000     -7.190230000000000      4.478750000000000
C      -5.438910000000000     -7.970090000000000      2.545240000000000
H      -5.353740000000000     -9.247960000000001      5.797760000000000
H      -6.572470000000000     -8.126210000000000      5.080100000000000
H      -6.388470000000000     -9.785410000000001      4.422500000000000
H      -3.305460000000000     -6.789630000000000      3.782700000000000
H      -4.809070000000000     -6.379840000000000      4.679670000000000
H      -3.582610000000000     -7.463080000000000      5.434880000000000
H      -4.689450000000000     -7.574820000000000      1.827100000000000
H      -6.000930000000000     -8.791160000000000      2.058430000000000
H      -6.181780000000000     -7.165950000000000      2.747160000000000

-C 0
6-31g(d,p)
****
-H 0
6-31g(d,p)
****
-Mg 0
6-31g(d,p)
****
-N 0
6-31+g(d,p)
****
-Na 0
6-31g(d,p)
****
-O 0
6-31+g(d,p)
****


