%chk=lowest10_c2_a1_speciation0_speciation3_speciationDFT45_rank02_E181.11.chk
%nprocshared=20
%mem=40GB
#p opt=loose PM7/gen scf=xqc 

lowest10_c2_a1_speciation0_speciation3_speciationDFT45_rank02_E181.11 DFT input

0 1
Na     -0.195210000000000      0.324740000000000      0.052680000000000
C      -1.843250000000000     -1.698110000000000      1.816600000000000
C      -2.727300000000000      0.458250000000000      2.120900000000000
O      -1.620920000000000     -0.308070000000000      1.696900000000000
C      -2.476670000000000     -2.268090000000000      0.551060000000000
C      -2.584330000000000      0.812280000000000      3.594850000000000
H      -0.853700000000000     -2.181910000000000      1.950860000000000
H      -2.440070000000000     -1.959960000000000      2.717090000000000
H      -2.732450000000000      1.400410000000000      1.530660000000000
H      -3.702830000000000     -0.037500000000000      1.918580000000000
H      -1.628170000000000      1.352220000000000      3.764150000000000
H      -3.427140000000000      1.463310000000000      3.905660000000000
H      -2.592900000000000     -0.108770000000000      4.212970000000000
H      -1.845570000000000     -2.039640000000000     -0.332570000000000
H      -2.563980000000000     -3.370500000000000      0.649440000000000
H      -3.488830000000000     -1.843500000000000      0.392870000000000
C       1.637820000000000      2.388440000000000     -1.584280000000000
C       1.168570000000000      3.228690000000000      0.549630000000000
O       0.801980000000000      2.306350000000000     -0.450410000000000
C       2.890980000000000      1.530810000000000     -1.420300000000000
C       0.319640000000000      2.954510000000000      1.786610000000000
H       1.062840000000000      1.978280000000000     -2.441390000000000
H       1.890520000000000      3.437920000000000     -1.852490000000000
H       2.234320000000000      3.114000000000000      0.842160000000000
H       0.968180000000000      4.267370000000000      0.209150000000000
H       0.494680000000000      1.920340000000000      2.153930000000000
H       0.579320000000000      3.668600000000000      2.595520000000000
H      -0.757910000000000      3.065070000000000      1.541130000000000
H       2.611250000000000      0.485650000000000     -1.174600000000000
H       3.465010000000000      1.530640000000000     -2.370410000000000
H       3.542890000000000      1.929230000000000     -0.617390000000000
C      -1.696620000000000      0.640480000000000     -2.718210000000000
C      -0.420840000000000     -1.319660000000000     -2.934930000000000
O      -0.721790000000000     -0.198230000000000     -2.131930000000000
C      -3.095350000000000      0.247580000000000     -2.255910000000000
C       0.757000000000000     -1.015770000000000     -3.852350000000000
H      -1.497580000000000      1.678530000000000     -2.375860000000000
H      -1.635270000000000      0.662900000000000     -3.829400000000000
H      -0.132110000000000     -2.150130000000000     -2.257580000000000
H      -1.297510000000000     -1.686680000000000     -3.514370000000000
H       1.635990000000000     -0.697730000000000     -3.252940000000000
H       1.025230000000000     -1.927140000000000     -4.425960000000000
H       0.493570000000000     -0.206200000000000     -4.563500000000000
H      -3.157820000000000      0.291080000000000     -1.147700000000000
H      -3.838180000000000      0.953490000000000     -2.683250000000000
H      -3.342090000000000     -0.779830000000000     -2.594230000000000
C       2.099300000000000     -2.264800000000000      0.001380000000000
C       1.903500000000000     -1.072760000000000      2.015050000000000
O       1.434820000000000     -1.225730000000000      0.689820000000000
C       1.361130000000000     -3.587140000000000      0.175250000000000
C       3.057040000000000     -0.078270000000000      2.071070000000000
H       2.099570000000000     -2.005100000000000     -1.077810000000000
H       3.168380000000000     -2.363220000000000      0.294030000000000
H       1.067690000000000     -0.665880000000000      2.623390000000000
H       2.187790000000000     -2.039610000000000      2.487010000000000
H       2.739490000000000      0.895360000000000      1.648290000000000
H       3.363960000000000      0.075070000000000      3.126760000000000
H       3.926450000000000     -0.454490000000000      1.494640000000000
H       0.309800000000000     -3.489360000000000     -0.167600000000000
H       1.863450000000000     -4.369430000000000     -0.430040000000000
H       1.365810000000000     -3.898700000000000      1.239770000000000
Na      7.176700000000000    -18.887309999999999      0.756000000000000
C       4.850150000000000    -16.210750000000001      0.755190000000000
C       3.696480000000000    -18.209250000000001      0.754400000000000
O       4.974170000000000    -17.614460000000001      0.754100000000000
C       6.245200000000000    -15.603579999999999      0.756130000000000
C       3.869560000000000    -19.721240000000002      0.757370000000000
H       4.321900000000000    -15.858120000000000     -0.159710000000000
H       4.324100000000000    -15.860600000000000      1.671800000000000
H       3.126790000000000    -17.926710000000000      1.668980000000000
H       3.128310000000000    -17.929440000000000     -0.161920000000000
H       4.431380000000000    -20.036840000000002      1.662580000000000
H       2.877030000000000    -20.218380000000000      0.757170000000000
H       4.433490000000000    -20.040070000000000     -0.145350000000000
H       6.802380000000000    -15.932040000000001     -0.147280000000000
H       6.177810000000000    -14.495540000000000      0.756260000000000
H       6.800660000000000    -15.932140000000000      1.660690000000000
Mg     -1.313820000000000    -13.290100000000001      1.301120000000000
H      -3.876800000000000    -15.507250000000001      1.330700000000000
C      -3.414160000000000    -14.639980000000000      3.294600000000000
C      -3.016800000000000    -15.102230000000000      1.900380000000000
C      -4.479140000000000    -13.543590000000000      3.217800000000000
H      -3.803390000000000    -15.512790000000001      3.859330000000000
H      -2.513860000000000    -14.245530000000000      3.814860000000000
H      -4.075750000000000    -12.670220000000000      2.665240000000000
H      -5.370640000000000    -13.927110000000001      2.676700000000000
C      -4.906150000000000    -13.090520000000000      4.610010000000000
H      -2.193700000000000    -15.845660000000001      1.951740000000000
H      -5.317380000000000    -13.949550000000000      5.181640000000000
H      -4.041920000000000    -12.663460000000001      5.161890000000000
H      -5.693020000000000    -12.311850000000000      4.522690000000000
C      -1.659300000000000    -11.213080000000000      3.611550000000000
C      -1.995630000000000     -9.888360000000000      3.838680000000000
C      -2.201870000000000     -9.320750000000000      2.597910000000000
C      -1.980570000000000    -10.317180000000000      1.678160000000000
N      -1.648340000000000    -11.468750000000000      2.299240000000000
C      -2.071480000000000    -10.233210000000000      0.210580000000000
N      -2.784270000000000    -11.418390000000000     -0.279110000000000
C      -4.186730000000000    -11.264559999999999     -0.672220000000000
H      -2.088450000000000     -9.398660000000000      4.795890000000000
H      -1.454180000000000    -11.952690000000000      4.377640000000000
H      -2.478890000000000     -8.292510000000000      2.388840000000000
H      -1.029720000000000    -10.305240000000000     -0.130580000000000
H      -2.462280000000000     -9.263780000000001     -0.164780000000000
C      -4.254340000000000    -10.623910000000000     -2.069160000000000
C      -4.787370000000000    -12.677989999999999     -0.735550000000000
C      -4.986990000000000    -10.444760000000000      0.358200000000000
H      -3.693590000000000    -11.243690000000001     -2.804700000000000
H      -5.307280000000000    -10.539270000000000     -2.410080000000000
H      -3.804580000000000     -9.610130000000000     -2.064700000000000
H      -4.719130000000000    -13.173360000000001      0.255600000000000
H      -5.851150000000000    -12.649390000000000     -1.049410000000000
H      -4.235070000000000    -13.308540000000001     -1.455070000000000
H      -4.895270000000000    -10.904540000000001      1.363920000000000
H      -4.627920000000000     -9.398180000000000      0.419070000000000
H      -6.059950000000000    -10.417770000000001      0.078140000000000
Mg     -0.813560000000000    -11.854010000000001     -1.708320000000000
H       0.831240000000000    -10.669150000000000     -3.663450000000000
C      -0.396350000000000     -9.024730000000000     -2.870780000000000
C      -0.192590000000000    -10.488640000000000     -3.279270000000000
C       0.670110000000000     -8.546279999999999     -1.879540000000000
H      -0.333260000000000     -8.387960000000000     -3.779040000000000
H      -1.413540000000000     -8.911610000000000     -2.436570000000000
H       0.662340000000000     -9.160720000000000     -0.965740000000000
H       1.670350000000000     -8.633179999999999     -2.355510000000000
C       0.441390000000000     -7.095700000000000     -1.464160000000000
H      -0.920070000000000    -10.719950000000001     -4.087240000000000
H       0.452110000000000     -6.428080000000000     -2.351340000000000
H      -0.532090000000000     -6.992860000000000     -0.938130000000000
H       1.250770000000000     -6.781560000000000     -0.771720000000000
C      -0.099420000000000    -14.138350000000001     -4.732450000000000
C      -1.457300000000000    -13.977130000000001     -4.576530000000000
C      -1.741380000000000    -14.174970000000000     -3.240810000000000
C      -0.601200000000000    -14.429420000000000     -2.597070000000000
N       0.492050000000000    -14.422029999999999     -3.489120000000000
C      -0.491190000000000    -14.644920000000001     -1.109920000000000
N      -0.124600000000000    -13.383490000000000     -0.435600000000000
C       1.260570000000000    -13.263430000000000      0.061010000000000
H      -2.164460000000000    -13.732559999999999     -5.358380000000000
H       0.438100000000000    -14.049849999999999     -5.666210000000000
H      -2.715770000000000    -14.103899999999999     -2.791080000000000
H       0.160100000000000    -15.511350000000000     -0.876340000000000
H      -1.501940000000000    -14.921080000000000     -0.741640000000000
C       2.293260000000000    -13.494870000000001     -1.054180000000000
C       1.437250000000000    -11.840290000000000      0.601130000000000
C       1.497080000000000    -14.249150000000000      1.231470000000000
H       2.120470000000000    -12.783590000000000     -1.889870000000000
H       3.320510000000000    -13.337809999999999     -0.661050000000000
H       2.240440000000000    -14.531840000000001     -1.443010000000000
H       0.707220000000000    -11.628610000000000      1.405580000000000
H       2.454740000000000    -11.691750000000001      1.018290000000000
H       1.283240000000000    -11.113680000000000     -0.215000000000000
H       0.774860000000000    -14.067869999999999      2.056200000000000
H       1.394900000000000    -15.307600000000001      0.921280000000000
H       2.516120000000000    -14.118639999999999      1.649720000000000

-C 0
6-31g(d,p)
****
-H 0
6-31g(d,p)
****
-Mg 0
6-31g(d,p)
****
-N 0
6-31+g(d,p)
****
-Na 0
6-31g(d,p)
****
-O 0
6-31+g(d,p)
****


