%chk=lowest10_c2_a1_speciation0_speciation0_speciationDFT45_rank03_E144.82.chk
%nprocshared=20
%mem=40GB
#p opt=loose PM7/gen scf=xqc 

lowest10_c2_a1_speciation0_speciation0_speciationDFT45_rank03_E144.82 DFT input

0 1
Na      0.001060000000000      2.185480000000000      0.000670000000000
C       0.579650000000000     -1.042980000000000     -1.003270000000000
C      -0.579590000000000     -1.041200000000000      1.002940000000000
O      -0.000440000000000     -0.240100000000000     -0.000960000000000
C       1.185600000000000     -0.123770000000000     -2.057610000000000
C      -1.187970000000000     -0.121940000000000      2.055620000000000
H       1.396780000000000     -1.673030000000000     -0.584400000000000
H      -0.189000000000000     -1.678350000000000     -1.499200000000000
H      -1.396050000000000     -1.671460000000000      0.584790000000000
H       0.190130000000000     -1.673980000000000      1.500410000000000
H      -1.964320000000000      0.524810000000000      1.592930000000000
H      -1.655670000000000     -0.719370000000000      2.865960000000000
H      -0.400400000000000      0.526480000000000      2.496470000000000
H       1.960160000000000      0.526200000000000     -1.596190000000000
H       1.654610000000000     -0.720740000000000     -2.867420000000000
H       0.396050000000000      0.522070000000000     -2.498780000000000
Na    -12.165950000000000    -12.469650000000000     -3.850580000000000
C      -8.708750000000000    -11.807680000000000     -3.851360000000000
C      -9.863390000000001     -9.808040000000000     -3.851880000000000
O      -9.985609999999999    -11.211880000000001     -3.851860000000000
C      -8.884190000000000    -13.319290000000001     -3.850050000000000
C     -11.261020000000000     -9.205030000000001     -3.849040000000000
H      -8.139419999999999    -11.527659999999999     -4.766670000000000
H      -8.141480000000000    -11.527860000000000     -2.935170000000000
H      -9.334450000000000     -9.455060000000000     -2.937360000000000
H      -9.337630000000001     -9.455330000000000     -4.768320000000000
H     -11.814700000000000     -9.535310000000001     -2.943990000000000
H     -11.198900000000000     -8.096740000000000     -3.849380000000000
H     -11.818470000000000     -9.535750000000000     -4.751570000000000
H      -9.448800000000000    -13.636340000000001     -4.753000000000000
H      -7.892660000000000    -13.818339999999999     -3.850250000000000
H      -9.447279999999999    -13.634480000000000     -2.945380000000000
Mg     -3.086100000000000     -7.919980000000000     -3.315830000000000
H      -3.725530000000000     -4.631840000000000     -3.293320000000000
C      -3.210200000000000     -5.444380000000000     -1.314170000000000
C      -3.806630000000000     -5.569060000000000     -2.708300000000000
C      -1.729070000000000     -5.066130000000000     -1.389770000000000
H      -3.775080000000000     -4.668790000000000     -0.756530000000000
H      -3.317170000000000     -6.418120000000000     -0.787550000000000
H      -1.170450000000000     -5.852240000000000     -1.937720000000000
H      -1.617880000000000     -4.104160000000000     -1.934430000000000
C      -1.126390000000000     -4.916750000000000      0.003080000000000
H      -4.859220000000000     -5.919570000000000     -2.659590000000000
H      -1.675070000000000     -4.139370000000000      0.574710000000000
H      -1.179690000000000     -5.879500000000000      0.554560000000000
H      -0.061810000000000     -4.612310000000000     -0.082120000000000
C      -1.121340000000000     -8.657620000000000     -0.994810000000000
C       0.191140000000000     -9.036450000000000     -0.770870000000000
C       0.784970000000000     -9.152410000000000     -2.011890000000000
C      -0.191840000000000     -8.842129999999999     -2.929840000000000
N      -1.347760000000000     -8.545040000000000     -2.311830000000000
C      -0.077540000000000     -8.810720000000000     -4.400520000000000
N      -0.750280000000000     -7.601540000000000     -4.890750000000000
C       0.081230000000000     -6.461700000000000     -5.282250000000000
H       0.662150000000000     -9.199560000000000      0.187700000000000
H      -1.861710000000000     -8.455990000000000     -0.231150000000000
H       1.810260000000000     -9.434600000000000     -2.220320000000000
H      -0.665830000000000     -9.675350000000000     -4.736740000000000
H       0.954700000000000     -8.959560000000000     -4.779640000000000
C       0.671940000000000     -6.720640000000000     -6.679040000000000
C      -0.843820000000000     -5.235300000000000     -5.343890000000000
C       1.187450000000000     -6.178730000000000     -4.249390000000000
H      -0.143430000000000     -6.889610000000000     -7.418250000000000
H       1.277120000000000     -5.852860000000000     -7.014450000000000
H       1.320690000000000     -7.620120000000000     -6.676600000000000
H      -1.306020000000000     -5.046490000000000     -4.352590000000000
H      -0.288930000000000     -4.328340000000000     -5.660410000000000
H      -1.666940000000000     -5.396810000000000     -6.060620000000000
H       0.739150000000000     -6.035430000000000     -3.244750000000000
H       1.916220000000000     -7.011240000000000     -4.190610000000000
H       1.742990000000000     -5.258910000000000     -4.523410000000000
Mg     -2.110080000000000     -9.066800000000001     -6.326370000000000
H      -1.890100000000000    -11.083769999999999     -8.270730000000000
C       0.144850000000000    -10.847640000000000     -7.468000000000000
C      -1.221740000000000    -10.289540000000001     -7.883030000000000
C       0.020500000000000    -12.015599999999999     -6.483320000000000
H       0.668400000000000    -11.217460000000001     -8.375360000000001
H       0.751250000000000    -10.026199999999999     -7.028480000000000
H      -0.510050000000000    -11.707459999999999     -5.569170000000000
H      -0.554330000000000    -12.834460000000000     -6.966380000000000
C       1.389370000000000    -12.546910000000000     -6.067450000000000
H      -1.052240000000000     -9.543170000000000     -8.689120000000001
H       1.964200000000000    -12.882260000000000     -6.956190000000000
H       1.963370000000000    -11.758950000000000     -5.533850000000000
H       1.256750000000000    -13.411530000000001     -5.382560000000000
C      -4.440840000000000     -8.543760000000001     -9.340520000000000
C      -3.605470000000000     -7.462340000000000     -9.178179999999999
C      -3.638120000000000     -7.118570000000000     -7.842450000000000
C      -4.446960000000000     -7.966130000000000     -7.204770000000000
N      -4.997900000000000     -8.905410000000000     -8.101680000000000
C      -4.692920000000000     -7.960090000000000     -5.718610000000000
N      -3.773340000000000     -8.901460000000000     -5.046360000000000
C      -4.356610000000000    -10.160890000000000     -4.543380000000000
H      -3.025130000000000     -6.982100000000000     -9.955310000000001
H      -4.633510000000000     -9.050840000000001    -10.275340000000000
H      -3.077680000000000     -6.321600000000000     -7.390130000000000
H      -5.768020000000000     -8.111420000000001     -5.494180000000000
H      -4.449710000000000     -6.943020000000000     -5.343960000000000
C      -5.073510000000000    -10.944550000000000     -5.654910000000000
C      -3.210410000000000    -11.022640000000001     -4.003250000000000
C      -5.324980000000000     -9.870699999999999     -3.370320000000000
H      -4.371430000000000    -11.150340000000000     -6.491020000000000
H      -5.447350000000000    -11.912419999999999     -5.257930000000000
H      -5.947180000000000    -10.384840000000001     -6.045090000000000
H      -2.660500000000000    -10.494149999999999     -3.201780000000000
H      -3.589300000000000    -11.976270000000000     -3.581010000000000
H      -2.506760000000000    -11.256050000000000     -4.820330000000000
H      -4.803110000000000     -9.336580000000000     -2.547260000000000
H      -6.190180000000000     -9.250900000000000     -3.676920000000000
H      -5.722240000000000    -10.817610000000000     -2.951150000000000

-C 0
6-31g(d,p)
****
-H 0
6-31g(d,p)
****
-Mg 0
6-31g(d,p)
****
-N 0
6-31+g(d,p)
****
-Na 0
6-31g(d,p)
****
-O 0
6-31+g(d,p)
****


