%chk=lowest10_c2_a1_speciation0_speciation3_speciationDFT39_rank03_E203.04.chk
%nprocshared=20
%mem=40GB
#p opt=loose PM7/gen scf=xqc 

lowest10_c2_a1_speciation0_speciation3_speciationDFT39_rank03_E203.04 DFT input

0 1
Na      0.187720000000000      0.232530000000000     -0.251240000000000
C       1.185590000000000     -2.570950000000000     -1.275940000000000
C       2.080630000000000     -0.901300000000000     -2.667510000000000
O       1.085360000000000     -1.234990000000000     -1.724550000000000
C       2.100290000000000     -2.679640000000000     -0.059650000000000
C       1.570690000000000     -1.156090000000000     -4.079480000000000
H       0.169670000000000     -2.894800000000000     -0.968820000000000
H       1.502730000000000     -3.269570000000000     -2.080190000000000
H       2.296920000000000      0.184080000000000     -2.561330000000000
H       3.044620000000000     -1.426780000000000     -2.486310000000000
H       0.636800000000000     -0.580440000000000     -4.255330000000000
H       2.336350000000000     -0.836460000000000     -4.815950000000000
H       1.361220000000000     -2.235940000000000     -4.222630000000000
H       1.743810000000000     -2.012460000000000      0.752170000000000
H       2.092790000000000     -3.725830000000000      0.311940000000000
H       3.141060000000000     -2.403490000000000     -0.324740000000000
C      -1.016510000000000      3.053290000000000      0.683060000000000
C      -1.086580000000000      2.869450000000000     -1.649860000000000
O      -0.520540000000000      2.382630000000000     -0.455010000000000
C      -2.316320000000000      2.425380000000000      1.182200000000000
C      -0.615340000000000      1.982160000000000     -2.797430000000000
H      -0.258620000000000      2.933170000000000      1.485960000000000
H      -1.125440000000000      4.147950000000000      0.518910000000000
H      -2.196510000000000      2.825070000000000     -1.625420000000000
H      -0.742930000000000      3.908090000000000     -1.844830000000000
H      -0.941590000000000      0.932520000000000     -2.633470000000000
H      -1.039090000000000      2.340870000000000     -3.758390000000000
H       0.493190000000000      2.001690000000000     -2.863420000000000
H      -2.175100000000000      1.339070000000000      1.358150000000000
H      -2.613870000000000      2.903970000000000      2.138580000000000
H      -3.134650000000000      2.569870000000000      0.448840000000000
C       2.390590000000000      1.387010000000000      1.708340000000000
C       1.106990000000000     -0.076650000000000      3.022820000000000
O       1.247820000000000      0.557710000000000      1.769550000000000
C       3.590820000000000      0.614510000000000      1.172160000000000
C       0.236980000000000      0.763390000000000      3.949660000000000
H       2.168140000000000      2.214870000000000      1.001550000000000
H       2.628440000000000      1.867070000000000      2.683960000000000
H       0.599380000000000     -1.048730000000000      2.851920000000000
H       2.083500000000000     -0.319610000000000      3.498510000000000
H      -0.750180000000000      0.954430000000000      3.478390000000000
H       0.078930000000000      0.219480000000000      4.904010000000000
H       0.727770000000000      1.734610000000000      4.164910000000000
H       3.358930000000000      0.194920000000000      0.170090000000000
H       4.460050000000000      1.299090000000000      1.079800000000000
H       3.859020000000000     -0.213490000000000      1.860170000000000
C      -2.153110000000000     -1.694020000000000      1.409800000000000
C      -2.432860000000000     -1.467520000000000     -0.910900000000000
O      -1.637500000000000     -1.148030000000000      0.213550000000000
C      -1.567100000000000     -3.077020000000000      1.670110000000000
C      -3.500180000000000     -0.404010000000000     -1.140640000000000
H      -1.848960000000000     -1.024700000000000      2.241440000000000
H      -3.265320000000000     -1.721650000000000      1.428730000000000
H      -1.767310000000000     -1.485230000000000     -1.800260000000000
H      -2.887630000000000     -2.480930000000000     -0.844170000000000
H      -3.025970000000000      0.590080000000000     -1.260860000000000
H      -4.067840000000000     -0.641470000000000     -2.064530000000000
H      -4.204840000000000     -0.365370000000000     -0.285300000000000
H      -0.458520000000000     -3.026660000000000      1.697880000000000
H      -1.932020000000000     -3.450650000000000      2.648820000000000
H      -1.876020000000000     -3.786890000000000      0.875940000000000
Na    -10.406540000000000    -17.889970000000002      6.619740000000000
C      -7.753540000000000    -17.081669999999999      4.420470000000000
C      -8.040170000000000    -15.352080000000001      5.921370000000000
O      -8.505000000000001    -16.620300000000000      5.519870000000000
C      -8.278350000000000    -18.453240000000001      4.021170000000000
C      -8.871969999999999    -14.887420000000001      7.107770000000000
H      -7.869870000000000    -16.400710000000000      3.546750000000000
H      -6.678360000000000    -17.190220000000000      4.690880000000000
H      -6.977510000000000    -15.406020000000000      6.248550000000000
H      -8.161690000000000    -14.606640000000001      5.102560000000000
H      -8.769370000000000    -15.607720000000000      7.947590000000000
H      -8.527930000000000    -13.887499999999999      7.445610000000000
H      -9.942729999999999    -14.822699999999999      6.818210000000000
H      -9.351459999999999    -18.381910000000001      3.741950000000000
H      -7.704990000000000    -18.843240000000002      3.154360000000000
H      -8.174239999999999    -19.161210000000001      4.871220000000000
Mg     -2.054580000000000    -11.843389999999999      2.109370000000000
H      -1.146110000000000    -13.347060000000001     -0.106410000000000
C       0.479150000000000    -13.154669999999999      1.351180000000000
C      -0.701600000000000    -12.590740000000000      0.572920000000000
C       0.027980000000000    -14.377610000000001      2.142760000000000
H       1.316020000000000    -13.430380000000000      0.675480000000000
H       0.833610000000000    -12.364440000000000      2.045920000000000
H      -0.892100000000000    -14.133290000000001      2.689960000000000
H      -0.210240000000000    -15.205880000000001      1.442890000000000
C       1.083410000000000    -14.817159999999999      3.150230000000000
H      -0.361790000000000    -11.717420000000001     -0.025670000000000
H       2.028870000000000    -15.079110000000000      2.633060000000000
H       1.276940000000000    -14.000560000000000      3.880690000000000
H       0.713030000000000    -15.702500000000001      3.708490000000000
C       0.650780000000000     -9.696400000000001      6.151950000000000
C       0.195850000000000    -10.979380000000001      5.919980000000000
C      -0.182010000000000    -11.030290000000001      4.592590000000000
C       0.045100000000000     -9.828540000000000      4.089240000000000
N       0.583600000000000     -8.988840000000000      5.074660000000000
C      -0.229580000000000     -9.412200000000000      2.668690000000000
N      -1.679650000000000     -9.237629999999999      2.466260000000000
C      -2.133290000000000     -7.849580000000000      2.222570000000000
H       0.146050000000000    -11.790170000000000      6.639960000000000
H       1.016210000000000     -9.311439999999999      7.089950000000000
H      -0.568940000000000    -11.871940000000000      4.056260000000000
H       0.155800000000000    -10.184160000000000      1.977240000000000
H       0.351860000000000     -8.505580000000000      2.430900000000000
C      -1.710820000000000     -7.422940000000000      0.806030000000000
C      -3.671260000000000     -7.796080000000000      2.307680000000000
C      -1.607070000000000     -6.875020000000000      3.300480000000000
H      -2.129020000000000     -8.132650000000000      0.057890000000000
H      -2.085590000000000     -6.405870000000000      0.571620000000000
H      -0.608790000000000     -7.427280000000000      0.691980000000000
H      -4.016460000000000     -8.135940000000000      3.303200000000000
H      -4.041960000000000     -6.760820000000000      2.152940000000000
H      -4.157850000000000     -8.411949999999999      1.537360000000000
H      -1.929930000000000     -7.216390000000000      4.307280000000000
H      -0.506710000000000     -6.776800000000000      3.306090000000000
H      -2.016200000000000     -5.859180000000000      3.126170000000000
Mg     -3.091360000000000    -10.113569999999999      4.401270000000000
H      -3.324670000000000     -9.929259999999999      7.168330000000000
C      -4.225350000000000     -8.062799999999999      6.447990000000000
C      -3.193890000000000     -9.190590000000000      6.352190000000000
C      -5.670440000000000     -8.572649999999999      6.474640000000000
H      -4.043210000000000     -7.532520000000000      7.406600000000000
H      -4.081730000000000     -7.330310000000000      5.623150000000000
H      -5.769260000000000     -9.329530000000000      7.282540000000000
H      -6.344030000000000     -7.721390000000000      6.710010000000000
C      -6.129160000000000     -9.166660000000000      5.149550000000000
H      -2.185310000000000     -8.734650000000000      6.458080000000000
H      -6.115030000000000     -8.395460000000000      4.352130000000000
H      -5.478140000000000    -10.003299999999999      4.857780000000000
H      -7.166780000000000     -9.547150000000000      5.254250000000000
C      -4.854740000000000    -12.843280000000000     -0.847100000000000
C      -4.208240000000000    -11.654669999999999     -1.091830000000000
C      -4.130930000000000    -10.975820000000001      0.106870000000000
C      -4.705290000000000    -11.723409999999999      1.055360000000000
N      -5.191630000000000    -12.929169999999999      0.511840000000000
C      -4.874280000000000    -11.335979999999999      2.500760000000000
N      -3.754800000000000    -11.798150000000000      3.343040000000000
C      -3.991230000000000    -13.002020000000000      4.189450000000000
H      -3.836760000000000    -11.318140000000000     -2.050540000000000
H      -5.076920000000000    -13.601749999999999     -1.582790000000000
H      -3.678480000000000    -10.008850000000001      0.228890000000000
H      -5.877160000000000    -11.625270000000000      2.859210000000000
H      -4.885980000000000    -10.235930000000000      2.551110000000000
C      -4.289780000000000    -14.225350000000001      3.304690000000000
C      -2.742990000000000    -13.300450000000000      5.037760000000000
C      -5.138150000000000    -12.776660000000000      5.200810000000000
H      -3.458300000000000    -14.390620000000000      2.584280000000000
H      -4.411990000000000    -15.140770000000000      3.920660000000000
H      -5.231450000000000    -14.082710000000001      2.741050000000000
H      -2.487320000000000    -12.436590000000001      5.687010000000000
H      -2.913020000000000    -14.185029999999999      5.689950000000000
H      -1.877790000000000    -13.543530000000001      4.417970000000000
H      -4.895010000000000    -11.925879999999999      5.871190000000000
H      -6.117870000000000    -12.592599999999999      4.724350000000000
H      -5.264600000000000    -13.675730000000000      5.839850000000000

-C 0
6-31g(d,p)
****
-H 0
6-31g(d,p)
****
-Mg 0
6-31g(d,p)
****
-N 0
6-31+g(d,p)
****
-Na 0
6-31g(d,p)
****
-O 0
6-31+g(d,p)
****


