%chk=lowest10_c2_a1_speciation0_speciation0_speciationDFT66b_rank01_E163.59.chk
%nprocshared=20
%mem=40GB
#p opt=loose PM7/gen scf=xqc 

lowest10_c2_a1_speciation0_speciation0_speciationDFT66b_rank01_E163.59 DFT input

0 1
Na      0.000080000000000      2.190160000000000     -0.001190000000000
C      -1.157780000000000     -1.042570000000000     -0.001790000000000
C       1.158910000000000     -1.042590000000000     -0.000010000000000
O       0.000660000000000     -0.240180000000000     -0.000960000000000
C      -2.373940000000000     -0.123630000000000      0.001210000000000
C       2.375520000000000     -0.124750000000000      0.000960000000000
H      -1.203900000000000     -1.672800000000000     -0.918770000000000
H      -1.202920000000000     -1.677580000000000      0.912050000000000
H       1.203550000000000     -1.672350000000000      0.916610000000000
H       1.205100000000000     -1.676010000000000     -0.914940000000000
H       2.362810000000000      0.522310000000000      0.904460000000000
H       3.310450000000000     -0.723400000000000      0.001270000000000
H       2.363950000000000      0.523710000000000     -0.901540000000000
H      -2.362130000000000      0.526310000000000     -0.900220000000000
H      -3.309470000000000     -0.721150000000000      0.000180000000000
H      -2.361230000000000      0.521860000000000      0.905820000000000
Na     -5.226020000000000    -14.320069999999999      7.128390000000000
C      -2.150980000000000    -12.655440000000000      6.684210000000000
C      -3.306680000000000    -12.655970000000000      4.683710000000000
O      -3.334490000000000    -13.057969999999999      6.034250000000000
C      -2.223510000000000    -13.107310000000000      8.136060000000001
C      -4.601050000000000    -13.110429999999999      4.024910000000000
H      -1.259840000000000    -13.134630000000000      6.218700000000000
H      -2.049730000000000    -11.546329999999999      6.673910000000000
H      -3.248040000000000    -11.546820000000000      4.599760000000000
H      -2.457940000000000    -13.133860000000000      4.143150000000000
H      -5.470680000000000    -12.648380000000000      4.539390000000000
H      -4.614730000000000    -12.810160000000000      2.958060000000000
H      -4.690740000000000    -14.215980000000000      4.088290000000000
H      -2.323440000000000    -14.212920000000000      8.184680000000000
H      -1.302630000000000    -12.804309999999999      8.676769999999999
H      -3.102930000000000    -12.645049999999999      8.633760000000001
Mg      1.824250000000000     -8.752319999999999     -0.637280000000000
C      -0.327740000000000     -7.382700000000000     -1.629760000000000
C      -2.342140000000000     -6.550460000000000     -0.794670000000000
O      -0.996030000000000     -6.852680000000000     -0.501210000000000
C       0.032780000000000     -6.339100000000000     -2.662330000000000
C      -3.164610000000000     -6.638500000000000      0.485610000000000
H      -1.190480000000000     -9.227390000000000     -0.127170000000000
H      -0.827800000000000     -8.268560000000001     -2.076700000000000
H      -2.401540000000000     -5.513960000000000     -1.187130000000000
H      -2.796390000000000     -7.258280000000000     -1.523910000000000
H      -2.756840000000000     -5.948820000000000      1.254930000000000
H      -4.217400000000000     -6.358200000000000      0.271880000000000
H      -3.149810000000000     -7.673210000000000      0.888270000000000
H       0.563430000000000     -5.500690000000000     -2.177040000000000
H       0.695480000000000     -6.809620000000000     -3.417650000000000
H      -0.885320000000000     -5.965330000000000     -3.155240000000000
H       2.661350000000000    -10.415540000000000     -2.611120000000000
C       4.430030000000000     -9.152960000000000     -2.532290000000000
C       2.905240000000000     -9.344420000000000     -2.469560000000000
C       5.171490000000000     -9.875040000000000     -1.401290000000000
H       4.791180000000000     -9.543580000000000     -3.509020000000000
H       4.660720000000000     -8.075939999999999     -2.500780000000000
H       4.822220000000000     -9.488619999999999     -0.423020000000000
H       4.963740000000000    -10.962040000000000     -1.460690000000000
C       6.687030000000000     -9.686809999999999     -1.494010000000000
H       2.449460000000000     -8.766460000000000     -3.301430000000000
H       7.069830000000000    -10.093109999999999     -2.454330000000000
H       6.962980000000000     -8.614839999999999     -1.416860000000000
H       7.180830000000000    -10.233779999999999     -0.662190000000000
C       2.328000000000000    -11.429330000000000      0.444220000000000
C       1.943580000000000    -12.504379999999999      1.204010000000000
C       0.725480000000000    -12.178879999999999      1.748420000000000
C       0.408540000000000    -10.918590000000000      1.286970000000000
N       1.409380000000000    -10.457450000000000      0.487310000000000
C      -0.880030000000000    -10.224480000000000      1.625630000000000
N      -1.699540000000000     -9.921630000000000      0.443340000000000
C      -2.190070000000000    -11.021170000000000     -0.428590000000000
H       2.494790000000000    -13.421130000000000      1.337270000000000
H       3.236210000000000    -11.360340000000001     -0.123850000000000
H       0.124400000000000    -12.799569999999999      2.398460000000000
H      -1.475130000000000    -10.834170000000000      2.338250000000000
H      -0.663480000000000     -9.280049999999999      2.163040000000000
C      -2.810070000000000    -12.162900000000000      0.398630000000000
C      -3.286870000000000    -10.432880000000001     -1.337900000000000
C      -1.075020000000000    -11.574070000000001     -1.348800000000000
H      -3.622210000000000    -11.766850000000000      1.043440000000000
H      -3.232740000000000    -12.944220000000000     -0.268290000000000
H      -2.050440000000000    -12.652450000000000      1.040980000000000
H      -2.878240000000000     -9.613709999999999     -1.965510000000000
H      -3.694980000000000    -11.210470000000001     -2.020000000000000
H      -4.122750000000000    -10.022800000000000     -0.731860000000000
H      -0.600280000000000    -10.751970000000000     -1.927120000000000
H      -0.290810000000000    -12.113000000000000     -0.793780000000000
H      -1.492410000000000    -12.308610000000000     -2.068390000000000
Mg      4.830050000000000     -7.463240000000000      0.794440000000000
H       6.695470000000000     -9.155450000000000      1.650380000000000
C       5.382320000000000     -9.035349999999999      3.363010000000000
C       6.152220000000000     -8.383950000000000      2.235960000000000
C       4.295380000000000     -9.938170000000000      2.787800000000000
H       6.081760000000000     -9.618359999999999      3.999910000000000
H       4.920840000000000     -8.243790000000001      3.985750000000000
H       3.643150000000000     -9.342560000000001      2.119110000000000
H       4.750780000000000    -10.751530000000001      2.182600000000000
C       3.452320000000000    -10.533709999999999      3.907290000000000
H       6.891810000000000     -7.657640000000000      2.634630000000000
H       4.086100000000000    -11.159950000000000      4.568490000000000
H       2.979120000000000     -9.724150000000000      4.503270000000000
H       2.650330000000000    -11.163919999999999      3.482110000000000
C       6.132730000000000     -3.853980000000000      0.293760000000000
C       6.720650000000000     -4.827550000000000     -0.481060000000000
C       5.708740000000000     -5.615120000000000     -0.986110000000000
C       4.545220000000000     -5.152830000000000     -0.520430000000000
N       4.739360000000000     -4.018070000000000      0.289800000000000
C       3.215330000000000     -5.814870000000000     -0.727470000000000
N       2.910480000000000     -6.676260000000000      0.426440000000000
C       2.187660000000000     -6.129850000000000      1.602690000000000
H       7.781890000000000     -4.963550000000000     -0.637940000000000
H       6.656600000000000     -3.086560000000000      0.842740000000000
H       5.851970000000000     -6.492850000000000     -1.593510000000000
H       3.303620000000000     -6.495610000000000     -1.597480000000000
H       2.427320000000000     -5.096650000000000     -1.009850000000000
C       1.296770000000000     -4.913160000000000      1.262940000000000
C       1.265390000000000     -7.238580000000000      2.140030000000000
C       3.181940000000000     -5.752650000000000      2.703470000000000
H       0.570030000000000     -5.166870000000000      0.465180000000000
H       0.719490000000000     -4.589480000000000      2.155220000000000
H       1.908440000000000     -4.051510000000000      0.929090000000000
H       1.829670000000000     -8.150660000000000      2.405340000000000
H       0.718370000000000     -6.904930000000000      3.048420000000000
H       0.521680000000000     -7.517020000000000      1.369790000000000
H       3.771260000000000     -6.638460000000000      2.994970000000000
H       3.879390000000000     -4.968280000000000      2.368750000000000
H       2.646540000000000     -5.378140000000000      3.601540000000000

-C 0
6-31g(d,p)
****
-H 0
6-31g(d,p)
****
-Mg 0
6-31g(d,p)
****
-N 0
6-31+g(d,p)
****
-Na 0
6-31g(d,p)
****
-O 0
6-31+g(d,p)
****


