%chk=lowest10_c2_a1_speciation3_speciation3_speciationDFT45_rank10_E217.76.chk
%nprocshared=20
%mem=40GB
#p opt=loose PM7/gen scf=xqc 

lowest10_c2_a1_speciation3_speciation3_speciationDFT45_rank10_E217.76 DFT input

0 1
Na      0.040000000000000      0.317520000000000     -0.202670000000000
C      -0.659170000000000     -1.690700000000000     -2.509800000000000
C      -0.480460000000000      0.465650000000000     -3.430960000000000
O      -0.661260000000000     -0.300010000000000     -2.259620000000000
C       0.751490000000000     -2.268270000000000     -2.434210000000000
C      -1.829700000000000      0.812120000000000     -4.047320000000000
H      -1.266350000000000     -2.171100000000000     -1.715030000000000
H      -1.148260000000000     -1.952230000000000     -3.472670000000000
H       0.026730000000000      1.411640000000000     -3.141030000000000
H       0.187120000000000     -0.027290000000000     -4.171890000000000
H      -2.459380000000000      1.351480000000000     -3.307630000000000
H      -1.678440000000000      1.461910000000000     -4.933760000000000
H      -2.356370000000000     -0.111270000000000     -4.363910000000000
H       1.210200000000000     -2.043260000000000     -1.449210000000000
H       0.702580000000000     -3.370670000000000     -2.557660000000000
H       1.391850000000000     -1.849110000000000     -3.236560000000000
C       0.543940000000000      2.377070000000000      2.185790000000000
C      -1.073710000000000      3.220120000000000      0.715850000000000
O      -0.024820000000000      2.297230000000000      0.897010000000000
C      -0.225540000000000      1.525910000000000      3.194200000000000
C      -1.719030000000000      2.947370000000000     -0.639460000000000
H       1.570220000000000      1.958890000000000      2.112630000000000
H       0.659550000000000      3.426180000000000      2.535930000000000
H      -1.860080000000000      3.104420000000000      1.492100000000000
H      -0.678570000000000      4.258670000000000      0.714420000000000
H      -2.125570000000000      1.913580000000000     -0.673210000000000
H      -2.548400000000000      3.661930000000000     -0.821640000000000
H      -0.966160000000000      3.057110000000000     -1.448620000000000
H      -0.308810000000000      0.480740000000000      2.831380000000000
H       0.316190000000000      1.522090000000000      4.163160000000000
H      -1.242490000000000      1.932640000000000      3.363220000000000
C       3.183430000000000      0.642710000000000     -0.130700000000000
C       2.731500000000000     -1.318430000000000      1.083420000000000
O       2.188680000000000     -0.196840000000000      0.419910000000000
C       3.489240000000000      0.249490000000000     -1.572260000000000
C       2.942370000000000     -1.014930000000000      2.562140000000000
H       2.783920000000000      1.679500000000000     -0.133560000000000
H       4.112180000000000      0.669130000000000      0.481680000000000
H       1.996710000000000     -2.145810000000000      0.998420000000000
H       3.667980000000000     -1.689840000000000      0.610900000000000
H       1.986910000000000     -0.693910000000000      3.028250000000000
H       3.303160000000000     -1.927810000000000      3.080110000000000
H       3.693670000000000     -0.208730000000000      2.688000000000000
H       2.564200000000000      0.290910000000000     -2.186000000000000
H       4.230990000000000      0.957100000000000     -1.998990000000000
H       3.908800000000000     -0.776570000000000     -1.615160000000000
C      -1.056610000000000     -2.261530000000000      1.797340000000000
C      -2.703510000000000     -1.068500000000000      0.619960000000000
O      -1.321870000000000     -1.222390000000000      0.878250000000000
C      -0.841160000000000     -3.585220000000000      1.071840000000000
C      -3.332030000000000     -0.076570000000000      1.591980000000000
H      -0.119490000000000     -2.002290000000000      2.332850000000000
H      -1.842020000000000     -2.357040000000000      2.579440000000000
H      -2.809970000000000     -0.657230000000000     -0.406800000000000
H      -3.253570000000000     -2.035610000000000      0.625260000000000
H      -2.809170000000000      0.898450000000000      1.531690000000000
H      -4.399220000000000      0.076530000000000      1.327530000000000
H      -3.270000000000000     -0.454770000000000      2.632460000000000
H      -0.019620000000000     -3.490290000000000      0.331200000000000
H      -0.569260000000000     -4.370240000000000      1.808110000000000
H      -1.765760000000000     -3.892790000000000      0.543540000000000
Na     -0.657810000000000    -14.861459999999999      5.743620000000000
C       0.385200000000000    -12.147860000000000      7.002220000000000
C       2.001110000000000    -12.967460000000001      5.506330000000000
O       0.875630000000000    -13.272430000000000      6.301560000000000
C      -0.648640000000000    -11.390599999999999      6.173810000000000
C       3.279590000000000    -13.229860000000000      6.290040000000000
H      -0.116160000000000    -12.521170000000000      7.919270000000000
H       1.197240000000000    -11.471130000000000      7.347560000000000
H       1.983790000000000    -13.640660000000000      4.621780000000000
H       1.983040000000000    -11.929610000000000      5.104390000000000
H       3.300890000000000    -14.285100000000000      6.637060000000000
H       4.160390000000000    -13.044520000000000      5.641340000000000
H       3.332450000000000    -12.558570000000000      7.171690000000000
H      -1.473930000000000    -12.069979999999999      5.875900000000000
H      -1.070960000000000    -10.561439999999999      6.779550000000000
H      -0.183870000000000    -10.964290000000000      5.261580000000000
C      -1.669800000000000    -17.728840000000002      4.653970000000000
C       0.595560000000000    -17.819340000000000      5.229320000000000
O      -0.497080000000000    -16.987510000000000      4.912630000000000
C      -2.435060000000000    -18.030310000000000      5.940850000000000
C       1.762710000000000    -16.936180000000000      5.656440000000000
H      -2.322040000000000    -17.094780000000000      4.016680000000000
H      -1.469580000000000    -18.654750000000000      4.070410000000000
H       0.361550000000000    -18.497959999999999      6.077610000000000
H       0.906220000000000    -18.404949999999999      4.337220000000000
H       1.484760000000000    -16.333559999999999      6.547800000000000
H       2.642860000000000    -17.562970000000000      5.910060000000000
H       2.038460000000000    -16.244209999999999      4.832570000000000
H      -2.642580000000000    -17.090129999999998      6.492260000000000
H      -3.400840000000000    -18.517090000000000      5.691040000000000
H      -1.857840000000000    -18.713629999999998      6.595470000000000
C      -2.132330000000000    -14.163660000000000      3.015880000000000
C      -3.733390000000000    -13.767289999999999      4.684580000000000
O      -2.447600000000000    -14.269500000000001      4.390010000000000
C      -1.417910000000000    -12.848150000000000      2.725910000000000
C      -4.765940000000000    -14.885240000000000      4.630200000000000
H      -1.443370000000000    -14.997460000000000      2.763420000000000
H      -3.021820000000000    -14.286330000000000      2.357210000000000
H      -3.710680000000000    -13.355600000000001      5.714970000000000
H      -4.025120000000000    -12.924720000000001      4.024560000000000
H      -4.481060000000000    -15.699240000000000      5.329410000000000
H      -5.759710000000000    -14.488270000000000      4.924740000000000
H      -4.832620000000000    -15.298500000000001      3.602790000000000
H      -0.500300000000000    -12.768219999999999      3.346590000000000
H      -1.129020000000000    -12.812260000000000      1.654460000000000
H      -2.082570000000000    -11.987140000000000      2.946120000000000
C      -2.843020000000000    -14.760800000000000      8.455140000000000
C      -0.608970000000000    -15.308070000000001      8.921980000000000
O      -1.546250000000000    -14.947550000000000      7.926340000000000
C      -3.055820000000000    -13.305899999999999      8.857559999999999
C      -0.527410000000000    -16.823210000000000      9.063630000000000
H      -3.571190000000000    -15.013389999999999      7.656310000000000
H      -3.067830000000000    -15.445660000000000      9.303440000000000
H       0.386780000000000    -14.935850000000000      8.599470000000000
H      -0.814990000000000    -14.827819999999999      9.904859999999999
H      -0.267720000000000    -17.281279999999999      8.088640000000000
H       0.258640000000000    -17.085789999999999      9.802099999999999
H      -1.497290000000000    -17.236059999999998      9.408450000000000
H      -2.876230000000000    -12.637940000000000      7.989300000000000
H      -4.100430000000000    -13.167240000000000      9.206120000000000
H      -2.363840000000000    -13.025160000000000      9.677860000000001
Mg     -6.973800000000000     -8.796860000000001      5.042160000000000
H      -5.363980000000000    -11.204240000000000      3.413960000000000
C      -7.538700000000000    -11.282719999999999      3.127240000000000
C      -6.301330000000000    -10.973970000000000      3.953860000000000
C      -7.510560000000000    -10.508730000000000      1.807350000000000
H      -7.569090000000000    -12.374380000000000      2.929390000000000
H      -8.441179999999999    -10.994130000000000      3.709250000000000
H      -7.485420000000000     -9.419090000000001      2.012770000000000
H      -6.598900000000000    -10.783960000000000      1.234580000000000
C      -8.738590000000000    -10.820410000000001      0.959330000000000
H      -6.340580000000000    -11.484280000000000      4.939560000000000
H      -8.786949999999999    -11.908740000000000      0.743120000000000
H      -9.664310000000000    -10.510410000000000      1.489240000000000
H      -8.676610000000000    -10.268300000000000     -0.002110000000000
C      -9.625240000000000     -8.080430000000000      3.547110000000000
C     -10.189310000000001     -7.087120000000000      2.765060000000000
C      -9.249250000000000     -6.080380000000000      2.669470000000000
C      -8.162120000000000     -6.505490000000000      3.397300000000000
N      -8.393420000000001     -7.717790000000000      3.931140000000000
C      -6.883190000000000     -5.802890000000000      3.614300000000000
N      -5.790690000000000     -6.769870000000000      3.452810000000000
C      -5.035300000000000     -6.752300000000000      2.198750000000000
H     -11.168880000000000     -7.101080000000000      2.309960000000000
H     -10.087870000000001     -9.025919999999999      3.801560000000000
H      -9.349320000000001     -5.143680000000000      2.133470000000000
H      -6.910510000000000     -5.509720000000000      4.672620000000000
H      -6.772670000000000     -4.868150000000000      3.026300000000000
C      -4.025830000000000     -5.591640000000000      2.230110000000000
C      -4.271890000000000     -8.084580000000001      2.119460000000000
C      -5.962660000000000     -6.655360000000000      0.973400000000000
H      -3.341920000000000     -5.696330000000000      3.102490000000000
H      -3.416080000000000     -5.583530000000000      1.303620000000000
H      -4.542860000000000     -4.614390000000000      2.318310000000000
H      -4.979910000000000     -8.939349999999999      2.124680000000000
H      -3.650930000000000     -8.138410000000000      1.201720000000000
H      -3.604440000000000     -8.210150000000001      2.989170000000000
H      -6.705350000000000     -7.479330000000000      0.995070000000000
H      -6.510490000000000     -5.692590000000000      0.948680000000000
H      -5.372870000000000     -6.735080000000000      0.037680000000000
Mg     -5.027620000000000     -6.130080000000000      5.703120000000000
H      -4.317730000000000     -3.890600000000000      7.245760000000000
C      -5.200580000000000     -3.055390000000000      5.411500000000000
C      -4.378480000000000     -4.110560000000000      6.161370000000000
C      -6.588800000000000     -2.854160000000000      6.029580000000000
H      -4.660470000000000     -2.085600000000000      5.456530000000000
H      -5.285050000000000     -3.355570000000000      4.344540000000000
H      -7.162940000000000     -3.793580000000000      6.027450000000000
H      -6.469700000000000     -2.515710000000000      7.081090000000000
C      -7.399570000000000     -1.814350000000000      5.261260000000000
H      -3.350340000000000     -4.101820000000000      5.739000000000000
H      -6.866900000000000     -0.840380000000000      5.242450000000000
H      -7.577370000000000     -2.156780000000000      4.219070000000000
H      -8.382920000000000     -1.672560000000000      5.758530000000000
C      -1.831300000000000     -6.654000000000000      7.759320000000000
C      -1.575500000000000     -6.847870000000000      6.421060000000000
C      -2.567770000000000     -7.672110000000000      5.930750000000000
C      -3.410940000000000     -7.957490000000000      6.924480000000000
N      -3.000640000000000     -7.341380000000000      8.124779999999999
C      -4.666550000000000     -8.774089999999999      6.777310000000000
N      -5.825430000000000     -7.885110000000000      6.550040000000000
C      -6.769580000000000     -7.715100000000000      7.672240000000000
H      -0.753900000000000     -6.420590000000000      5.861140000000000
H      -1.234970000000000     -6.053720000000000      8.431410000000000
H      -2.660690000000000     -7.997240000000000      4.910720000000000
H      -4.775130000000000     -9.481120000000001      7.624190000000000
H      -4.553810000000000     -9.405300000000000      5.870080000000000
C      -6.065280000000000     -7.212940000000000      8.943350000000001
C      -7.811920000000000     -6.673140000000000      7.252200000000000
C      -7.513560000000000     -9.044580000000000      7.949770000000000
H      -5.537310000000000     -6.257530000000000      8.736310000000000
H      -6.811240000000000     -7.038450000000000      9.747890000000000
H      -5.335040000000000     -7.956000000000000      9.321809999999999
H      -8.341850000000001     -6.989830000000000      6.334220000000000
H      -8.572400000000000     -6.522740000000000      8.046210000000000
H      -7.313010000000000     -5.708510000000000      7.057810000000000
H      -8.057520000000000     -9.391370000000000      7.044830000000000
H      -6.828300000000000     -9.857270000000000      8.259869999999999
H      -8.262570000000000     -8.911440000000001      8.757429999999999

-C 0
6-31g(d,p)
****
-H 0
6-31g(d,p)
****
-Mg 0
6-31g(d,p)
****
-N 0
6-31+g(d,p)
****
-Na 0
6-31g(d,p)
****
-O 0
6-31+g(d,p)
****


