%chk=lowest10_c2_a1_speciation0_speciation3_speciationDFT45_rank09_E182.70.chk
%nprocshared=20
%mem=40GB
#p opt=loose PM7/gen scf=xqc 

lowest10_c2_a1_speciation0_speciation3_speciationDFT45_rank09_E182.70 DFT input

0 1
Na     -0.293460000000000      0.037030000000000     -0.244280000000000
C       1.625220000000000      2.298910000000000     -1.270060000000000
C      -0.268270000000000      2.241300000000000     -2.663530000000000
O       0.515190000000000      1.547480000000000     -1.717080000000000
C       1.267930000000000      3.152830000000000     -0.056590000000000
C       0.213170000000000      1.931170000000000     -4.075110000000000
H       2.409600000000000      1.578210000000000     -0.959570000000000
H       2.075430000000000      2.916830000000000     -2.076410000000000
H      -1.315770000000000      1.882410000000000     -2.562800000000000
H      -0.299280000000000      3.338010000000000     -2.479460000000000
H       0.184290000000000      0.835200000000000     -4.255560000000000
H      -0.445100000000000      2.435260000000000     -4.812310000000000
H       1.252510000000000      2.292340000000000     -4.215060000000000
H       0.866270000000000      2.517610000000000      0.759760000000000
H       2.181390000000000      3.665600000000000      0.311670000000000
H       0.513270000000000      3.920040000000000     -0.323710000000000
C      -2.132470000000000     -2.404540000000000      0.684630000000000
C      -1.937430000000000     -2.377890000000000     -1.649780000000000
O      -1.798860000000000     -1.643360000000000     -0.455580000000000
C      -0.941550000000000     -3.219620000000000      1.184210000000000
C      -1.406200000000000     -1.524390000000000     -2.797690000000000
H      -2.401880000000000     -1.684640000000000      1.486360000000000
H      -3.029080000000000     -3.042420000000000      0.523600000000000
H      -1.343600000000000     -3.316630000000000     -1.625160000000000
H      -3.008510000000000     -2.600910000000000     -1.843880000000000
H      -0.333980000000000     -1.281170000000000     -2.635230000000000
H      -1.505690000000000     -2.068140000000000     -3.760010000000000
H      -1.977320000000000     -0.573900000000000     -2.861700000000000
H      -0.067890000000000     -2.558340000000000      1.357990000000000
H      -1.208280000000000     -3.714640000000000      2.141390000000000
H      -0.661210000000000     -4.000850000000000      0.451120000000000
C      -2.395840000000000      1.370380000000000      1.701710000000000
C      -0.484930000000000      0.989680000000000      3.016270000000000
O      -1.105870000000000      0.796180000000000      1.763340000000000
C      -2.330170000000000      2.798390000000000      1.169860000000000
C      -0.779790000000000     -0.181490000000000      3.946160000000000
H      -2.999060000000000      0.765380000000000      0.991320000000000
H      -2.931680000000000      1.331390000000000      2.676190000000000
H       0.610670000000000      1.031240000000000      2.844120000000000
H      -0.758090000000000      1.958830000000000      3.489910000000000
H      -0.455080000000000     -1.134730000000000      3.478060000000000
H      -0.227860000000000     -0.045900000000000      4.899470000000000
H      -1.865890000000000     -0.238400000000000      4.163810000000000
H      -1.851460000000000      2.813220000000000      0.167500000000000
H      -3.358820000000000      3.206490000000000      1.078590000000000
H      -1.749650000000000      3.444470000000000      1.859970000000000
C       2.533530000000000     -1.018420000000000      1.409930000000000
C       2.477230000000000     -1.374420000000000     -0.912490000000000
O       1.803950000000000     -0.845760000000000      0.212920000000000
C       3.442150000000000      0.178600000000000      1.669970000000000
C       2.093450000000000     -2.831780000000000     -1.142610000000000
H       1.800540000000000     -1.085160000000000      2.240790000000000
H       3.109240000000000     -1.969970000000000      1.430940000000000
H       2.156120000000000     -0.790510000000000     -1.801570000000000
H       3.581700000000000     -1.257890000000000     -0.847890000000000
H       0.995890000000000     -2.922290000000000     -1.263000000000000
H       2.583360000000000     -3.202800000000000     -2.067130000000000
H       2.414680000000000     -3.461120000000000     -0.288160000000000
H       2.847530000000000      1.115750000000000      1.697280000000000
H       3.950190000000000      0.050810000000000      2.648620000000000
H       4.211520000000000      0.263000000000000      0.875650000000000
Na     -2.524490000000000     -6.521970000000000    -10.093579999999999
C      -3.386310000000000     -8.353510000000000     -7.212930000000000
C      -4.540300000000000     -6.353540000000000     -7.212680000000000
O      -3.613220000000000     -7.151540000000000     -7.912300000000000
C      -2.383580000000000     -9.184970000000000     -7.999670000000000
C      -4.759450000000000     -5.070090000000000     -8.001139999999999
H      -2.952900000000000     -8.151980000000000     -6.207000000000000
H      -4.326150000000000     -8.943759999999999     -7.124450000000000
H      -5.521570000000000     -6.872500000000000     -7.120420000000000
H      -4.147750000000000     -6.077770000000000     -6.207420000000000
H      -5.154550000000000     -5.308780000000000     -9.011950000000001
H      -5.486850000000000     -4.417690000000000     -7.474430000000000
H      -3.798090000000000     -4.523860000000000     -8.111170000000000
H      -1.429830000000000     -8.625480000000000     -8.108919999999999
H      -2.183330000000000    -10.140800000000000     -7.471960000000000
H      -2.786970000000000     -9.407980000000000     -9.010800000000000
Mg     -7.010020000000000     -9.804420000000000     -1.577800000000000
H      -9.088490000000000     -7.347030000000000     -0.648120000000000
C     -10.108470000000001     -9.046450000000000     -1.603570000000000
C      -8.907510000000000     -8.133229999999999     -1.407410000000000
C     -10.481920000000001     -9.740050000000000     -0.291500000000000
H     -10.960089999999999     -8.436260000000001     -1.969710000000000
H      -9.857760000000001     -9.813310000000000     -2.369010000000000
H      -9.630200000000000    -10.357270000000000      0.060350000000000
H     -10.711230000000000     -8.975610000000000      0.481460000000000
C     -11.699600000000000    -10.640590000000000     -0.470890000000000
H      -8.585490000000000     -7.688920000000000     -2.372750000000000
H     -12.566500000000000    -10.044070000000000     -0.826250000000000
H     -11.482920000000000    -11.445119999999999     -1.205570000000000
H     -11.963490000000000    -11.107970000000000      0.501240000000000
C      -8.523009999999999    -12.549040000000000     -1.588410000000000
C      -8.608140000000001    -13.733930000000001     -0.879120000000000
C      -7.677010000000000    -13.656580000000000      0.137620000000000
C      -7.068750000000000    -12.429180000000001     -0.004050000000000
N      -7.577080000000000    -11.760669999999999     -1.047880000000000
C      -5.999300000000000    -11.848890000000001      0.833450000000000
N      -6.333430000000000    -10.443659999999999      1.097280000000000
C      -6.884350000000000    -10.102480000000000      2.410340000000000
H      -9.280690000000000    -14.557680000000000     -1.075750000000000
H      -9.132630000000001    -12.272320000000001     -2.437260000000000
H      -7.466400000000000    -14.407810000000000      0.887860000000000
H      -5.112420000000000    -11.861549999999999      0.185560000000000
H      -5.748230000000000    -12.448219999999999      1.732080000000000
C      -5.742380000000000    -10.042790000000000      3.439470000000000
C      -7.519980000000000     -8.708909999999999      2.278670000000000
C      -7.980740000000000    -11.091680000000000      2.845980000000000
H      -4.976400000000000     -9.298719999999999      3.124080000000000
H      -6.130010000000000     -9.748139999999999      4.436800000000000
H      -5.241000000000000    -11.027380000000001      3.535340000000000
H      -8.328010000000001     -8.719989999999999      1.517850000000000
H      -7.941020000000000     -8.365539999999999      3.245850000000000
H      -6.775430000000000     -7.964690000000000      1.950120000000000
H      -8.771380000000001    -11.145870000000000      2.069570000000000
H      -7.575120000000000    -12.110760000000001      3.002580000000000
H      -8.441970000000000    -10.759100000000000      3.798070000000000
Mg     -4.133110000000000     -9.856809999999999      0.162180000000000
H      -1.393100000000000    -10.416440000000000      0.424030000000000
C      -2.403180000000000    -11.938110000000000      1.651410000000000
C      -2.282900000000000    -10.522000000000000      1.075850000000000
C      -2.368130000000000    -13.013650000000000      0.559950000000000
H      -1.548020000000000    -12.116730000000000      2.337580000000000
H      -3.342310000000000    -12.008530000000000      2.242020000000000
H      -3.187700000000000    -12.872140000000000     -0.161410000000000
H      -1.402250000000000    -12.943140000000000      0.015540000000000
C      -2.506280000000000    -14.414880000000000      1.148600000000000
H      -2.184650000000000     -9.816260000000000      1.928950000000000
H      -1.693690000000000    -14.613140000000000      1.878740000000000
H      -3.489970000000000    -14.526100000000000      1.653630000000000
H      -2.442050000000000    -15.165720000000000      0.332280000000000
C      -1.956070000000000     -6.727960000000000      0.103880000000000
C      -2.858060000000000     -6.641340000000000      1.146540000000000
C      -4.089450000000000     -6.977060000000000      0.627790000000000
C      -3.900150000000000     -7.264770000000000     -0.652840000000000
N      -2.542780000000000     -7.104670000000000     -0.978250000000000
C      -4.974250000000000     -7.746380000000000     -1.598920000000000
N      -4.986540000000000     -9.223120000000000     -1.653580000000000
C      -4.476360000000000     -9.850009999999999     -2.888820000000000
H      -2.642340000000000     -6.393690000000000      2.179640000000000
H      -0.898810000000000     -6.523630000000000      0.168010000000000
H      -5.015140000000000     -7.031220000000000      1.166090000000000
H      -4.899220000000000     -7.237690000000000     -2.581230000000000
H      -5.950730000000000     -7.430970000000000     -1.175020000000000
C      -3.044270000000000     -9.393420000000001     -3.210670000000000
C      -4.467270000000000    -11.367270000000000     -2.673050000000000
C      -5.425380000000000     -9.546659999999999     -4.074680000000000
H      -2.371580000000000     -9.616860000000001     -2.355360000000000
H      -2.668020000000000     -9.926980000000000     -4.109600000000000
H      -3.004960000000000     -8.306649999999999     -3.425870000000000
H      -5.480890000000000    -11.740000000000000     -2.432350000000000
H      -4.118680000000000    -11.900460000000001     -3.581640000000000
H      -3.791100000000000    -11.617900000000001     -1.838220000000000
H      -6.454770000000000     -9.908530000000001     -3.863110000000000
H      -5.490210000000000     -8.464330000000000     -4.300810000000000
H      -5.076830000000000    -10.062070000000000     -4.993030000000000

-C 0
6-31g(d,p)
****
-H 0
6-31g(d,p)
****
-Mg 0
6-31g(d,p)
****
-N 0
6-31+g(d,p)
****
-Na 0
6-31g(d,p)
****
-O 0
6-31+g(d,p)
****


