%chk=lowest10_c2_a1_speciation0_speciation3_speciationDFT11_rank08_E166.98.chk
%nprocshared=20
%mem=40GB
#p opt=loose PM7/gen scf=xqc 

lowest10_c2_a1_speciation0_speciation3_speciationDFT11_rank08_E166.98 DFT input

0 1
Na      0.153960000000000      0.324670000000000      0.124370000000000
C       2.505800000000000     -1.697960000000000      0.669820000000000
C       3.211310000000000      0.458310000000000      1.283240000000000
O       2.291030000000000     -0.307960000000000      0.536930000000000
C       1.726410000000000     -2.267590000000000      1.851210000000000
C       4.416260000000000      0.812440000000000      0.422470000000000
H       2.127370000000000     -2.181900000000000     -0.254260000000000
H       3.584050000000000     -1.959870000000000      0.736600000000000
H       2.702650000000000      1.400370000000000      1.582960000000000
H       3.523940000000000     -0.037550000000000      2.229170000000000
H       4.084690000000000      1.352380000000000     -0.490190000000000
H       5.106820000000000      1.463450000000000      0.996980000000000
H       4.955840000000000     -0.108600000000000      0.120760000000000
H       0.645650000000000     -2.039080000000000      1.746300000000000
H       1.855260000000000     -3.369970000000000      1.877880000000000
H       2.095410000000000     -1.842850000000000      2.806810000000000
C      -2.180430000000000      2.388690000000000     -0.644590000000000
C      -0.097770000000000      3.228880000000000     -1.305030000000000
O      -0.780560000000000      2.306550000000000     -0.487540000000000
C      -2.664910000000000      1.530910000000000     -1.811770000000000
C       1.397940000000000      2.954670000000000     -1.188370000000000
H      -2.635340000000000      1.978720000000000      0.281950000000000
H      -2.539010000000000      3.438180000000000     -0.729550000000000
H      -0.377320000000000      3.114210000000000     -2.374260000000000
H      -0.292400000000000      4.267560000000000     -0.961230000000000
H       1.628480000000000      1.920500000000000     -1.523630000000000
H       1.968600000000000      3.668760000000000     -1.817760000000000
H       1.724170000000000      3.065250000000000     -0.132460000000000
H      -2.312360000000000      0.485750000000000     -1.692140000000000
H      -3.774740000000000      1.530830000000000     -1.833990000000000
H      -2.295360000000000      1.929140000000000     -2.777810000000000
C      -1.495270000000000      0.640650000000000      2.810390000000000
C      -2.320910000000000     -1.319360000000000      1.813840000000000
O      -1.475020000000000     -0.197930000000000      1.672940000000000
C      -0.395430000000000      0.247650000000000      3.790400000000000
C      -3.704290000000000     -1.015530000000000      1.252400000000000
H      -1.298400000000000      1.678730000000000      2.466920000000000
H      -2.488210000000000      0.662960000000000      3.312970000000000
H      -1.878610000000000     -2.149840000000000      1.225200000000000
H      -2.384480000000000     -1.686320000000000      2.862810000000000
H      -3.624560000000000     -0.697610000000000      0.191450000000000
H      -4.335170000000000     -1.926900000000000      1.306950000000000
H      -4.188470000000000     -0.205920000000000      1.836030000000000
H       0.595470000000000      0.291180000000000      3.290270000000000
H      -0.394010000000000      0.953460000000000      4.647460000000000
H      -0.565010000000000     -0.779800000000000      4.173170000000000
C      -1.038000000000000     -2.265330000000000     -1.837380000000000
C       0.803700000000000     -1.073040000000000     -2.674660000000000
O      -0.109880000000000     -1.225880000000000     -1.606390000000000
C      -0.517770000000000     -3.587140000000000     -1.284250000000000
C       0.275620000000000     -0.078390000000000     -3.701530000000000
H      -1.972700000000000     -2.005570000000000     -1.297970000000000
H      -1.319220000000000     -2.364210000000000     -2.909490000000000
H       1.748440000000000     -0.666300000000000     -2.254810000000000
H       1.070230000000000     -2.039890000000000     -3.156890000000000
H       0.068320000000000      0.895170000000000     -3.214940000000000
H       1.036450000000000      0.075000000000000     -4.495110000000000
H      -0.658330000000000     -0.454530000000000     -4.166230000000000
H      -0.287560000000000     -3.487450000000000     -0.202920000000000
H      -1.293070000000000     -4.369920000000000     -1.413310000000000
H       0.401060000000000     -3.899310000000000     -1.821520000000000
Na      9.357290000000001    -16.668489999999998     -4.036020000000000
C       6.253610000000000    -16.383340000000000     -2.331960000000000
C       7.034790000000000    -14.269840000000000     -2.830500000000000
O       7.294990000000000    -15.650779999999999     -2.936620000000000
C       6.571080000000000    -17.866070000000001     -2.460490000000000
C       8.175820000000000    -13.511310000000000     -3.492170000000000
H       6.174470000000000    -16.141290000000001     -1.247490000000000
H       5.284050000000000    -16.193269999999998     -2.846230000000000
H       6.091190000000000    -14.001590000000000     -3.358330000000000
H       6.990480000000000    -13.956490000000001     -1.763240000000000
H       8.252739999999999    -13.799210000000000     -4.562520000000000
H       7.995460000000000    -12.418040000000000     -3.424160000000000
H       9.134710000000000    -13.751450000000000     -2.984780000000000
H       7.533580000000000    -18.093010000000000     -1.953790000000000
H       5.765620000000000    -18.470040000000001     -1.992860000000000
H       6.655020000000000    -18.144169999999999     -3.533000000000000
Mg     -1.726570000000000    -11.728590000000001     -0.144400000000000
H       0.005410000000000    -12.211950000000000      2.061370000000000
C      -2.004500000000000    -12.299090000000000      2.876850000000000
C      -0.979530000000000    -11.715809999999999      1.913380000000000
C      -2.113350000000000    -13.829079999999999      2.797810000000000
H      -1.704080000000000    -12.030099999999999      3.910920000000000
H      -2.979070000000000    -11.828200000000001      2.651190000000000
H      -2.365300000000000    -14.160320000000000      1.767860000000000
H      -1.142850000000000    -14.281540000000000      3.092160000000000
C      -3.182680000000000    -14.336250000000000      3.765260000000000
H      -0.849100000000000    -10.635719999999999      2.119940000000000
H      -2.953860000000000    -14.008929999999999      4.802200000000000
H      -4.176790000000000    -13.940730000000000      3.480430000000000
H      -3.227500000000000    -15.445200000000000      3.744420000000000
C       0.649090000000000    -17.291039999999999     -0.241610000000000
C       0.090500000000000    -16.660990000000002      0.858490000000000
C       0.879890000000000    -15.559320000000000      1.120430000000000
C       1.832480000000000    -15.552640000000000      0.200200000000000
N       1.681060000000000    -16.656279999999999     -0.657380000000000
C       2.922830000000000    -14.533130000000000      0.087680000000000
N       2.338340000000000    -13.202550000000000     -0.117850000000000
C       3.191780000000000    -12.012560000000001      0.115530000000000
H      -0.794300000000000    -16.965900000000001      1.402450000000000
H       0.278820000000000    -18.191109999999998     -0.710810000000000
H       0.755570000000000    -14.832720000000000      1.909880000000000
H       3.509800000000000    -14.583270000000001      1.023130000000000
H       3.577840000000000    -14.785869999999999     -0.771980000000000
C       4.382010000000000    -12.033140000000000     -0.860100000000000
C       2.353350000000000    -10.755699999999999     -0.154790000000000
C       3.711240000000000    -11.931830000000000      1.571850000000000
H       4.014550000000000    -12.090370000000000     -1.907470000000000
H       5.000890000000000    -11.116750000000000     -0.751200000000000
H       5.033570000000000    -12.909620000000000     -0.666410000000000
H       1.495230000000000    -10.703460000000000      0.548860000000000
H       2.963720000000000     -9.834949999999999     -0.018460000000000
H       1.965090000000000    -10.767700000000000     -1.193110000000000
H       2.868210000000000    -11.898350000000001      2.294270000000000
H       4.372590000000000    -12.781140000000001      1.833160000000000
H       4.321910000000000    -11.011440000000000      1.710180000000000
Mg      0.242230000000000    -13.101250000000000     -0.098310000000000
H      -1.493860000000000    -12.622850000000000     -2.301350000000000
C      -1.037630000000000    -14.743860000000000     -2.373630000000000
C      -0.638140000000000    -13.302180000000000     -2.090990000000000
C      -2.313120000000000    -15.178310000000000     -1.636570000000000
H      -1.219080000000000    -14.848630000000000     -3.463490000000000
H      -0.185280000000000    -15.387020000000000     -2.087840000000000
H      -2.206530000000000    -15.047520000000000     -0.538600000000000
H      -3.167880000000000    -14.562480000000001     -1.988860000000000
C      -2.627850000000000    -16.643149999999999     -1.939960000000000
H       0.197580000000000    -13.011500000000000     -2.756770000000000
H      -2.729760000000000    -16.798580000000001     -3.035580000000000
H      -1.816240000000000    -17.295999999999999     -1.562700000000000
H      -3.577130000000000    -16.943650000000002     -1.449210000000000
C      -5.524810000000000    -12.375950000000000      1.636780000000000
C      -5.068690000000000    -13.134020000000000      0.580030000000000
C      -4.485340000000000    -12.267590000000000     -0.324810000000000
C      -4.569830000000000    -11.032560000000000      0.168650000000000
N      -5.224930000000000    -11.022100000000000      1.416980000000000
C      -4.057090000000000     -9.802560000000000     -0.510380000000000
N      -2.607340000000000     -9.909190000000001     -0.710920000000000
C      -1.961210000000000     -8.975149999999999     -1.664310000000000
H      -5.156140000000000    -14.208280000000000      0.486100000000000
H      -6.031270000000000    -12.755910000000000      2.512780000000000
H      -4.033510000000000    -12.533020000000000     -1.270220000000000
H      -4.599270000000000     -9.712700000000000     -1.469730000000000
H      -4.276190000000000     -8.917050000000000      0.121260000000000
C      -2.148750000000000     -7.527320000000000     -1.175610000000000
C      -0.459790000000000     -9.289550000000000     -1.707200000000000
C      -2.517570000000000     -9.116930000000000     -3.102330000000000
H      -1.748380000000000     -7.419230000000000     -0.144390000000000
H      -1.615250000000000     -6.814940000000000     -1.839930000000000
H      -3.222460000000000     -7.246130000000000     -1.167990000000000
H      -0.291200000000000    -10.323750000000000     -2.075850000000000
H       0.071830000000000     -8.591049999999999     -2.391610000000000
H      -0.017080000000000     -9.192790000000000     -0.695320000000000
H      -2.377910000000000    -10.150940000000000     -3.483080000000000
H      -3.591490000000000     -8.853510000000000     -3.168720000000000
H      -1.986760000000000     -8.420159999999999     -3.789160000000000

-C 0
6-31g(d,p)
****
-H 0
6-31g(d,p)
****
-Mg 0
6-31g(d,p)
****
-N 0
6-31+g(d,p)
****
-Na 0
6-31g(d,p)
****
-O 0
6-31+g(d,p)
****


