%chk=lowest10_c2_a1_speciation0_speciation3_speciationDFT45_rank04_E182.13.chk
%nprocshared=20
%mem=40GB
#p opt=loose PM7/gen scf=xqc 

lowest10_c2_a1_speciation0_speciation3_speciationDFT45_rank04_E182.13 DFT input

0 1
Na      0.164470000000000      0.259260000000000      0.199480000000000
C      -1.468180000000000      2.027020000000000     -1.812680000000000
C      -0.427270000000000      3.446280000000000     -0.252870000000000
O      -0.853040000000000      2.133150000000000     -0.545000000000000
C      -0.445420000000000      1.728140000000000     -2.905410000000000
C      -1.527060000000000      4.206970000000000      0.476810000000000
H      -2.175880000000000      1.173710000000000     -1.766910000000000
H      -2.077730000000000      2.920350000000000     -2.067750000000000
H       0.455060000000000      3.373270000000000      0.419720000000000
H      -0.082770000000000      4.000280000000000     -1.153970000000000
H      -1.817400000000000      3.663750000000000      1.401560000000000
H      -1.161190000000000      5.217470000000000      0.752350000000000
H      -2.418780000000000      4.312610000000000     -0.174260000000000
H       0.122240000000000      0.805880000000000     -2.663540000000000
H      -0.974440000000000      1.574630000000000     -3.869540000000000
H       0.265160000000000      2.571520000000000     -3.020670000000000
C       1.646830000000000     -1.563060000000000      2.361120000000000
C       0.471300000000000      0.161820000000000      3.424960000000000
O       1.025260000000000     -0.304730000000000      2.216610000000000
C       0.645620000000000     -2.706500000000000      2.209490000000000
C      -0.305700000000000      1.441230000000000      3.129490000000000
H       2.384250000000000     -1.656060000000000      1.535900000000000
H       2.225920000000000     -1.645890000000000      3.306830000000000
H      -0.241020000000000     -0.571790000000000      3.859370000000000
H       1.276510000000000      0.399740000000000      4.152810000000000
H      -1.121090000000000      1.239250000000000      2.401840000000000
H      -0.752770000000000      1.844320000000000      4.061840000000000
H       0.372180000000000      2.206900000000000      2.696100000000000
H       0.096430000000000     -2.613840000000000      1.249970000000000
H       1.190360000000000     -3.672940000000000      2.213420000000000
H      -0.082610000000000     -2.710750000000000      3.044890000000000
C       3.135370000000000      0.087860000000000     -0.861370000000000
C       1.950090000000000     -1.550970000000000     -2.060090000000000
O       1.909280000000000     -0.597340000000000     -1.019790000000000
C       3.156770000000000      1.365310000000000     -1.694810000000000
C       2.356370000000000     -2.917470000000000     -1.519270000000000
H       3.224470000000000      0.373590000000000      0.208700000000000
H       4.017910000000000     -0.551090000000000     -1.087120000000000
H       0.925870000000000     -1.632340000000000     -2.479640000000000
H       2.603950000000000     -1.241200000000000     -2.905500000000000
H       1.663360000000000     -3.232860000000000     -0.710810000000000
H       2.315310000000000     -3.667570000000000     -2.336490000000000
H       3.388700000000000     -2.881140000000000     -1.115310000000000
H       2.307270000000000      2.023030000000000     -1.412100000000000
H       4.105670000000000      1.911640000000000     -1.509670000000000
H       3.087780000000000      1.126140000000000     -2.775850000000000
C      -1.820200000000000     -2.254090000000000     -1.058150000000000
C      -2.853800000000000     -0.721630000000000      0.393830000000000
O      -1.662830000000000     -1.090250000000000     -0.273390000000000
C      -2.243640000000000     -1.897640000000000     -2.479350000000000
C      -2.933810000000000     -1.376450000000000      1.768150000000000
H      -0.833500000000000     -2.760330000000000     -1.106140000000000
H      -2.520660000000000     -2.989260000000000     -0.604090000000000
H      -2.831010000000000      0.379700000000000      0.539460000000000
H      -3.766960000000000     -0.936020000000000     -0.204250000000000
H      -2.045270000000000     -1.105040000000000      2.371610000000000
H      -3.843130000000000     -1.020670000000000      2.296350000000000
H      -2.981280000000000     -2.480170000000000      1.673970000000000
H      -1.508900000000000     -1.203360000000000     -2.938460000000000
H      -2.292030000000000     -2.821430000000000     -3.092890000000000
H      -3.242520000000000     -1.415640000000000     -2.478570000000000
Na     -9.789849999999999    -14.435330000000000     -2.365010000000000
C      -6.332890000000000    -13.773500000000000     -2.365790000000000
C      -7.487530000000000    -11.773840000000000     -2.366310000000000
O      -7.609740000000000    -13.177690000000000     -2.366290000000000
C      -6.508370000000000    -15.285110000000000     -2.364480000000000
C      -8.885170000000000    -11.170859999999999     -2.363470000000000
H      -5.763550000000000    -13.493490000000000     -3.281100000000000
H      -5.765610000000000    -13.493690000000001     -1.449610000000000
H      -6.958600000000000    -11.420850000000000     -1.451790000000000
H      -6.961780000000000    -11.421130000000000     -3.282740000000000
H      -9.438850000000000    -11.501160000000000     -1.458420000000000
H      -8.823090000000001    -10.062569999999999     -2.363810000000000
H      -9.442620000000000    -11.501600000000000     -3.266000000000000
H      -7.072990000000000    -15.602150000000000     -3.267420000000000
H      -5.516850000000000    -15.784190000000001     -2.364680000000000
H      -7.071470000000000    -15.600289999999999     -1.459810000000000
Mg     -0.710250000000000     -9.885170000000000     -1.830270000000000
H      -1.350260000000000     -6.595690000000000     -1.808070000000000
C      -0.835080000000000     -7.408730000000000      0.170580000000000
C      -1.431200000000000     -7.533260000000000     -1.223530000000000
C       0.645920000000000     -7.030770000000000      0.094940000000000
H      -1.399830000000000     -6.633050000000000      0.728310000000000
H      -0.941920000000000     -8.382619999999999      0.697150000000000
H       1.204470000000000     -7.817020000000000     -0.452990000000000
H       0.757390000000000     -6.068440000000000     -0.449390000000000
C       1.247990000000000     -6.882620000000000      1.488030000000000
H      -2.483540000000000     -7.884440000000000     -1.174790000000000
H       0.699120000000000     -6.105110000000000      2.059480000000000
H       1.194270000000000     -7.845570000000000      2.039220000000000
H       2.312870000000000     -6.579330000000000      1.403310000000000
C       1.254490000000000    -10.623189999999999      0.490600000000000
C       2.566970000000000    -11.002230000000001      0.714680000000000
C       3.160640000000000    -11.118190000000000     -0.526400000000000
C       2.184060000000000    -10.807760000000000     -1.444430000000000
N       1.027960000000000    -10.510490000000001     -0.826110000000000
C       2.298080000000000    -10.776180000000000     -2.914980000000000
N       1.625340000000000     -9.566890000000001     -3.405110000000000
C       2.456790000000000     -8.426930000000000     -3.796560000000000
H       3.037950000000000    -11.165419999999999      1.673190000000000
H       0.514150000000000    -10.421500000000000      1.254430000000000
H       4.186000000000000    -11.400539999999999     -0.734840000000000
H       1.709840000000000    -11.640860000000000     -3.251230000000000
H       3.330350000000000    -10.925110000000000     -3.294190000000000
C       3.047530000000000     -8.686019999999999     -5.193350000000000
C       1.531880000000000     -7.200210000000000     -3.857990000000000
C       3.563020000000000     -8.144150000000000     -2.763750000000000
H       2.232200000000000     -8.855010000000000     -5.932600000000000
H       3.652870000000000     -7.818380000000000     -5.528790000000000
H       3.696170000000000     -9.585610000000001     -5.190890000000000
H       1.069730000000000     -7.011280000000000     -2.866700000000000
H       2.086770000000000     -6.293140000000000     -4.174270000000000
H       0.708720000000000     -7.361660000000000     -4.574710000000000
H       3.114690000000000     -8.001020000000000     -1.759130000000000
H       4.291760000000000     -8.976720000000000     -2.705110000000000
H       4.118510000000000     -7.224280000000000     -3.037690000000000
Mg      0.265730000000000    -11.032349999999999     -4.840860000000000
H       0.485830000000000    -13.049420000000000     -6.785110000000000
C       2.520780000000000    -12.813350000000000     -5.982330000000000
C       1.154200000000000    -12.255210000000000     -6.397390000000000
C       2.396380000000000    -13.981360000000000     -4.997700000000000
H       3.044340000000000    -13.183149999999999     -6.889680000000000
H       3.127190000000000    -11.991940000000000     -5.542770000000000
H       1.865820000000000    -13.673240000000000     -4.083550000000000
H       1.821550000000000    -14.800179999999999     -5.480830000000000
C       3.765230000000000    -14.512720000000000     -4.581840000000000
H       1.323760000000000    -11.508860000000000     -7.203490000000000
H       4.340070000000000    -14.848030000000000     -5.470590000000000
H       4.339230000000000    -13.724810000000000     -4.048170000000000
H       3.632570000000000    -15.377390000000000     -3.897010000000000
C      -2.064960000000000    -10.509370000000001     -7.854890000000000
C      -1.229430000000000     -9.428080000000000     -7.692500000000000
C      -1.262110000000000     -9.084289999999999     -6.356760000000000
C      -2.071130000000000     -9.931730000000000     -5.719140000000000
N      -2.622180000000000    -10.870910000000000     -6.616090000000000
C      -2.317170000000000     -9.925739999999999     -4.233010000000000
N      -1.397480000000000    -10.866989999999999     -3.560720000000000
C      -1.980680000000000    -12.126490000000000     -3.057750000000000
H      -0.648950000000000     -8.947960000000000     -8.469600000000000
H      -2.257630000000000    -11.016450000000001     -8.789709999999999
H      -0.701530000000000     -8.287430000000001     -5.904390000000000
H      -3.392250000000000    -10.077320000000000     -4.008690000000000
H      -2.074210000000000     -8.908620000000001     -3.858300000000000
C      -2.697570000000000    -12.910209999999999     -4.169270000000000
C      -0.834470000000000    -12.988250000000001     -2.517640000000000
C      -2.949040000000000    -11.836340000000000     -1.884680000000000
H      -1.995510000000000    -13.116020000000001     -5.005380000000000
H      -3.071380000000000    -13.878090000000000     -3.772270000000000
H      -3.571280000000000    -12.350580000000001     -4.559470000000000
H      -0.284530000000000    -12.459759999999999     -1.716190000000000
H      -1.213360000000000    -13.941879999999999     -2.095380000000000
H      -0.130860000000000    -13.221710000000000     -3.334730000000000
H      -2.427130000000000    -11.302230000000000     -1.061630000000000
H      -3.814230000000000    -11.216519999999999     -2.191250000000000
H      -3.346300000000000    -12.783260000000000     -1.465540000000000

-C 0
6-31g(d,p)
****
-H 0
6-31g(d,p)
****
-Mg 0
6-31g(d,p)
****
-N 0
6-31+g(d,p)
****
-Na 0
6-31g(d,p)
****
-O 0
6-31+g(d,p)
****


