%chk=lowest10_c2_a1_speciation0_speciation0_speciationDFT11_rank07_E130.07.chk
%nprocshared=20
%mem=40GB
#p opt=loose PM7/gen scf=xqc 

lowest10_c2_a1_speciation0_speciation0_speciationDFT11_rank07_E130.07 DFT input

0 1
Na     -0.001030000000000     -0.981740000000000      1.835040000000000
C      -1.158410000000000      0.638450000000000     -0.968750000000000
C       1.157620000000000      0.637470000000000     -0.969190000000000
O      -0.000440000000000      0.234240000000000     -0.275040000000000
C      -2.375000000000000      0.179150000000000     -0.174580000000000
C       2.374120000000000      0.176830000000000     -0.175590000000000
H      -1.203030000000000      1.747850000000000     -1.055950000000000
H      -1.204460000000000      0.164140000000000     -1.975290000000000
H       1.203120000000000      0.163240000000000     -1.975790000000000
H       1.203070000000000      1.746900000000000     -1.056290000000000
H       2.361780000000000     -0.929330000000000     -0.068990000000000
H       3.308730000000000      0.477490000000000     -0.693680000000000
H       2.362300000000000      0.633690000000000      0.837460000000000
H      -2.362910000000000      0.635770000000000      0.838400000000000
H      -3.309810000000000      0.478620000000000     -0.692860000000000
H      -2.362400000000000     -0.925790000000000     -0.066670000000000
Na      5.986570000000000    -14.694620000000000     -6.187540000000000
C       3.627410000000000    -12.159610000000001     -5.491450000000000
C       3.339250000000000    -13.893310000000000     -3.994230000000000
O       4.093140000000000    -13.427730000000000     -5.089880000000000
C       4.461770000000000    -11.695489999999999     -6.676690000000000
C       3.870540000000000    -15.261030000000000     -3.590740000000000
H       2.563800000000000    -12.211499999999999     -5.818410000000000
H       3.748380000000000    -11.414520000000000     -4.672420000000000
H       3.445190000000000    -13.210860000000000     -3.120220000000000
H       2.267940000000000    -14.011590000000000     -4.272620000000000
H       4.941830000000000    -15.183330000000000     -3.306430000000000
H       3.294990000000000    -15.653430000000000     -2.726410000000000
H       3.774480000000000    -15.970409999999999     -4.440570000000000
H       4.361830000000000    -12.416580000000000     -7.516200000000000
H       4.119050000000000    -10.695919999999999     -7.016610000000000
H       5.531920000000000    -11.630509999999999     -6.384610000000000
Mg     -2.272160000000000     -7.573440000000000      0.359130000000000
H      -3.533820000000000     -8.831250000000001     -1.870140000000000
C      -4.700700000000000     -7.048430000000000     -1.459830000000000
C      -3.861770000000000     -8.229350000000000     -0.993240000000000
C      -4.008450000000000     -6.187680000000000     -2.527870000000000
H      -5.642350000000000     -7.441830000000000     -1.895230000000000
H      -4.941040000000000     -6.441400000000000     -0.567960000000000
H      -3.032130000000000     -5.802520000000000     -2.163850000000000
H      -3.833920000000000     -6.800320000000000     -3.437950000000000
C      -4.901250000000000     -5.009110000000000     -2.916480000000000
H      -4.470210000000000     -8.885640000000000     -0.341730000000000
H      -5.887380000000000     -5.372920000000000     -3.277000000000000
H      -5.066020000000000     -4.348410000000000     -2.043740000000000
H      -4.426070000000000     -4.412210000000000     -3.722650000000000
C       0.804380000000000     -6.793160000000000     -4.797730000000000
C      -0.555960000000000     -6.670160000000000     -4.621280000000000
C      -1.041270000000000     -7.915390000000000     -4.267600000000000
C      -0.009110000000000     -8.759750000000000     -4.215580000000000
N       1.198650000000000     -8.118700000000000     -4.544780000000000
C      -0.111750000000000    -10.211690000000001     -3.866440000000000
N      -0.663040000000000    -10.363049999999999     -2.516420000000000
C      -1.161160000000000    -11.699249999999999     -2.107770000000000
H      -1.130850000000000     -5.760220000000000     -4.739450000000000
H       1.479200000000000     -5.998040000000000     -5.078310000000000
H      -2.069680000000000     -8.170750000000000     -4.062430000000000
H      -0.756940000000000    -10.685210000000000     -4.629090000000000
H       0.900250000000000    -10.666980000000001     -3.905320000000000
C      -0.004040000000000    -12.713620000000001     -2.150200000000000
C      -1.681360000000000    -11.602950000000000     -0.667530000000000
C      -2.324190000000000    -12.196270000000000     -3.001150000000000
H       0.835200000000000    -12.359610000000000     -1.513310000000000
H      -0.333720000000000    -13.708830000000001     -1.782540000000000
H       0.369490000000000    -12.841379999999999     -3.186760000000000
H      -2.530840000000000    -10.889360000000000     -0.608920000000000
H      -2.041350000000000    -12.593480000000000     -0.309390000000000
H      -0.875260000000000    -11.257199999999999      0.010380000000000
H      -3.181060000000000    -11.490200000000000     -2.970050000000000
H      -2.017190000000000    -12.338749999999999     -4.055860000000000
H      -2.681470000000000    -13.189480000000000     -2.647320000000000
Mg     -1.238840000000000     -8.592070000000000     -1.546130000000000
H       0.021910000000000     -7.315440000000000      0.673840000000000
C       1.113110000000000     -6.660940000000000     -1.084130000000000
C       0.342820000000000     -7.721820000000000     -0.311380000000000
C       0.356340000000000     -5.330590000000000     -1.221310000000000
H       2.062340000000000     -6.460350000000000     -0.545970000000000
H       1.344260000000000     -7.081100000000000     -2.079990000000000
H      -0.628880000000000     -5.476760000000000     -1.713350000000000
H       0.190950000000000     -4.895780000000000     -0.212570000000000
C       1.182510000000000     -4.333910000000000     -2.034630000000000
H       0.997180000000000     -8.593940000000000     -0.119990000000000
H       2.176800000000000     -4.179640000000000     -1.563130000000000
H       1.334490000000000     -4.712160000000000     -3.063900000000000
H       0.661720000000000     -3.355340000000000     -2.093930000000000
C      -4.487190000000000     -3.967300000000000      0.625640000000000
C      -3.130860000000000     -3.985390000000000      0.387540000000000
C      -2.573670000000000     -4.920630000000000      1.239300000000000
C      -3.559620000000000     -5.463280000000000      1.956190000000000
N      -4.806650000000000     -4.903680000000000      1.624350000000000
C      -3.374130000000000     -6.523830000000000      2.996200000000000
N      -2.783420000000000     -7.721130000000000      2.390500000000000
C      -2.206170000000000     -8.749850000000000      3.290380000000000
H      -2.606100000000000     -3.376560000000000     -0.337200000000000
H      -5.208860000000000     -3.341620000000000      0.121530000000000
H      -1.528620000000000     -5.178820000000000      1.316350000000000
H      -2.724890000000000     -6.098090000000000      3.783150000000000
H      -4.362100000000000     -6.781010000000000      3.432260000000000
C      -3.309340000000000     -9.308040000000000      4.208010000000000
C      -1.655960000000000     -9.893929999999999      2.428620000000000
C      -1.041490000000000     -8.199260000000001      4.149570000000000
H      -4.148170000000000     -9.703049999999999      3.595150000000000
H      -2.917800000000000    -10.129810000000001      4.845100000000000
H      -3.704990000000000     -8.517620000000001      4.879300000000000
H      -0.843500000000000     -9.524720000000000      1.767110000000000
H      -1.236320000000000    -10.703799999999999      3.066650000000000
H      -2.461740000000000    -10.324840000000000      1.800800000000000
H      -0.222220000000000     -7.809980000000000      3.508540000000000
H      -1.366810000000000     -7.396450000000000      4.839930000000000
H      -0.624090000000000     -9.007170000000000      4.791740000000000

-C 0
6-31g(d,p)
****
-H 0
6-31g(d,p)
****
-Mg 0
6-31g(d,p)
****
-N 0
6-31+g(d,p)
****
-Na 0
6-31g(d,p)
****
-O 0
6-31+g(d,p)
****


