%chk=lowest10_c2_a1_speciation3_speciation3_speciationDFT45_rank06_E217.40.chk
%nprocshared=20
%mem=40GB
#p opt=loose PM7/gen scf=xqc 

lowest10_c2_a1_speciation3_speciation3_speciationDFT45_rank06_E217.40 DFT input

0 1
Na     -0.109930000000000      0.356200000000000      0.007160000000000
C       0.064730000000000     -0.402970000000000      3.047060000000000
C      -0.477220000000000      1.879450000000000      2.880670000000000
O       0.053110000000000      0.747310000000000      2.226420000000000
C      -1.238800000000000     -1.187840000000000      2.925460000000000
C       0.636490000000000      2.664410000000000      3.561940000000000
H       0.888890000000000     -1.055100000000000      2.691260000000000
H       0.293720000000000     -0.167840000000000      4.108680000000000
H      -0.942550000000000      2.529020000000000      2.107550000000000
H      -1.288470000000000      1.624590000000000      3.597980000000000
H       1.408260000000000      2.955440000000000      2.817480000000000
H       0.216960000000000      3.581980000000000      4.023460000000000
H       1.112310000000000      2.049350000000000      4.352850000000000
H      -1.430420000000000     -1.459720000000000      1.866880000000000
H      -1.160800000000000     -2.121570000000000      3.521320000000000
H      -2.093230000000000     -0.593180000000000      3.307310000000000
C      -0.075170000000000      1.159650000000000     -3.083460000000000
C       1.040120000000000      2.780820000000000     -1.812130000000000
O       0.132940000000000      1.703070000000000     -1.798090000000000
C       0.983410000000000      0.114570000000000     -3.430730000000000
C       1.315260000000000      3.190310000000000     -0.368400000000000
H      -1.057700000000000      0.642350000000000     -3.060490000000000
H      -0.153840000000000      1.942650000000000     -3.869140000000000
H       2.010380000000000      2.493930000000000     -2.271060000000000
H       0.599350000000000      3.649890000000000     -2.346110000000000
H       1.757320000000000      2.341640000000000      0.196820000000000
H       2.023120000000000      4.044540000000000     -0.338840000000000
H       0.368810000000000      3.490750000000000      0.129120000000000
H       1.027340000000000     -0.665170000000000     -2.642680000000000
H       0.720950000000000     -0.370400000000000     -4.394210000000000
H       1.983230000000000      0.581240000000000     -3.534560000000000
C      -3.132340000000000      0.095190000000000     -0.876770000000000
C      -2.262040000000000     -2.085280000000000     -0.991040000000000
O      -1.980630000000000     -0.718140000000000     -0.779010000000000
C      -3.787790000000000      0.273930000000000      0.488470000000000
C      -2.087830000000000     -2.444830000000000     -2.461950000000000
H      -2.808270000000000      1.095120000000000     -1.237100000000000
H      -3.864300000000000     -0.282810000000000     -1.624810000000000
H      -1.529870000000000     -2.673180000000000     -0.399430000000000
H      -3.267660000000000     -2.383890000000000     -0.619260000000000
H      -1.062740000000000     -2.185280000000000     -2.801740000000000
H      -2.244110000000000     -3.535180000000000     -2.598100000000000
H      -2.823150000000000     -1.894880000000000     -3.084100000000000
H      -3.064000000000000      0.713320000000000      1.207570000000000
H      -4.657020000000000      0.958530000000000      0.395120000000000
H      -4.141150000000000     -0.701470000000000      0.879120000000000
C       1.627420000000000     -2.588130000000000     -0.387800000000000
C       2.829310000000000     -0.765350000000000      0.482080000000000
O       1.577750000000000     -1.238040000000000      0.024300000000000
C       1.304710000000000     -3.522920000000000      0.773300000000000
C       3.635660000000000     -0.161220000000000     -0.661980000000000
H       0.853100000000000     -2.726710000000000     -1.170950000000000
H       2.596340000000000     -2.858990000000000     -0.862410000000000
H       2.634460000000000      0.037010000000000      1.225560000000000
H       3.416030000000000     -1.545820000000000      1.015200000000000
H       3.060470000000000      0.653300000000000     -1.144740000000000
H       4.583190000000000      0.260400000000000     -0.265930000000000
H       3.875200000000000     -0.931940000000000     -1.422210000000000
H       0.312430000000000     -3.274260000000000      1.204750000000000
H       1.281500000000000     -4.570940000000000      0.408200000000000
H       2.074590000000000     -3.437370000000000      1.567030000000000
Na     -1.744240000000000    -15.069020000000000      2.180820000000000
C      -0.701240000000000    -12.355399999999999      3.439420000000000
C       0.914670000000000    -13.175000000000001      1.943530000000000
O      -0.210810000000000    -13.479970000000000      2.738760000000000
C      -1.735070000000000    -11.598140000000001      2.611010000000000
C       2.193150000000000    -13.437410000000000      2.727240000000000
H      -1.202600000000000    -12.728710000000000      4.356470000000000
H       0.110810000000000    -11.678670000000000      3.784760000000000
H       0.897350000000000    -13.848200000000000      1.058980000000000
H       0.896600000000000    -12.137150000000000      1.541590000000000
H       2.214440000000000    -14.492649999999999      3.074260000000000
H       3.073950000000000    -13.252070000000000      2.078540000000000
H       2.246010000000000    -12.766109999999999      3.608880000000000
H      -2.560360000000000    -12.277509999999999      2.313100000000000
H      -2.157390000000000    -10.768980000000001      3.216750000000000
H      -1.270300000000000    -11.171820000000000      1.698780000000000
C      -2.756240000000000    -17.936399999999999      1.091170000000000
C      -0.490880000000000    -18.026900000000001      1.666520000000000
O      -1.583520000000000    -17.195070000000001      1.349830000000000
C      -3.521500000000000    -18.237870000000001      2.378050000000000
C       0.676270000000000    -17.143740000000001      2.093630000000000
H      -3.408480000000000    -17.302340000000001      0.453870000000000
H      -2.556020000000000    -18.862300000000001      0.507600000000000
H      -0.724890000000000    -18.705520000000000      2.514800000000000
H      -0.180220000000000    -18.612510000000000      0.774410000000000
H       0.398320000000000    -16.541110000000000      2.985000000000000
H       1.556420000000000    -17.770530000000001      2.347260000000000
H       0.952020000000000    -16.451760000000000      1.269770000000000
H      -3.729020000000000    -17.297689999999999      2.929460000000000
H      -4.487280000000000    -18.724650000000000      2.128230000000000
H      -2.944280000000000    -18.921189999999999      3.032670000000000
C      -3.218770000000000    -14.371230000000001     -0.546920000000000
C      -4.819830000000000    -13.974850000000000      1.121780000000000
O      -3.534040000000000    -14.477069999999999      0.827220000000000
C      -2.504350000000000    -13.055709999999999     -0.836880000000000
C      -5.852380000000000    -15.092800000000000      1.067400000000000
H      -2.529810000000000    -15.205019999999999     -0.799380000000000
H      -4.108260000000000    -14.493900000000000     -1.205590000000000
H      -4.797120000000000    -13.563160000000000      2.152170000000000
H      -5.111560000000000    -13.132280000000000      0.461760000000000
H      -5.567500000000000    -15.906800000000000      1.766610000000000
H      -6.846150000000000    -14.695830000000001      1.361940000000000
H      -5.919060000000000    -15.506060000000000      0.039990000000000
H      -1.586740000000000    -12.975790000000000     -0.216200000000000
H      -2.215460000000000    -13.019830000000001     -1.908340000000000
H      -3.169010000000000    -12.194699999999999     -0.616670000000000
C      -3.929460000000000    -14.968360000000001      4.892340000000000
C      -1.695410000000000    -15.515620000000000      5.359180000000000
O      -2.632690000000000    -15.155110000000001      4.363540000000000
C      -4.142260000000000    -13.513460000000000      5.294760000000000
C      -1.613850000000000    -17.030770000000000      5.500820000000000
H      -4.657630000000000    -15.220950000000000      4.093500000000000
H      -4.154270000000000    -15.653210000000000      5.740630000000000
H      -0.699660000000000    -15.143409999999999      5.036670000000000
H      -1.901430000000000    -15.035380000000000      6.342060000000000
H      -1.354160000000000    -17.488840000000000      4.525830000000000
H      -0.827800000000000    -17.293350000000000      6.239300000000000
H      -2.583730000000000    -17.443619999999999      5.845650000000000
H      -3.962670000000000    -12.845499999999999      4.426490000000000
H      -5.186870000000000    -13.374800000000000      5.643320000000000
H      -3.450280000000000    -13.232720000000000      6.115060000000000
Mg     -8.060050000000000     -9.004360000000000      1.479370000000000
H      -6.450430000000000    -11.411799999999999     -0.148830000000000
C      -8.625150000000000    -11.490290000000000     -0.435560000000000
C      -7.387780000000000    -11.181530000000000      0.391060000000000
C      -8.597009999999999    -10.716300000000000     -1.755450000000000
H      -8.655530000000001    -12.581950000000001     -0.633400000000000
H      -9.527630000000000    -11.201700000000001      0.146450000000000
H      -8.571870000000001     -9.626659999999999     -1.550030000000000
H      -7.685340000000000    -10.991529999999999     -2.328220000000000
C      -9.825040000000000    -11.027979999999999     -2.603470000000000
H      -7.427030000000000    -11.691839999999999      1.376760000000000
H      -9.873400000000000    -12.116310000000000     -2.819680000000000
H     -10.750750000000000    -10.717980000000001     -2.073560000000000
H      -9.763050000000000    -10.475870000000000     -3.564910000000000
C     -10.711620000000000     -8.288019999999999     -0.015650000000000
C     -11.275700000000001     -7.294700000000000     -0.797690000000000
C     -10.335620000000000     -6.287980000000000     -0.893300000000000
C      -9.248450000000000     -6.713130000000000     -0.165500000000000
N      -9.479770000000000     -7.925410000000000      0.368350000000000
C      -7.969470000000000     -6.010540000000000      0.051460000000000
N      -6.876850000000000     -6.977440000000000     -0.110260000000000
C      -6.121240000000000     -6.959640000000000     -1.364310000000000
H     -12.255280000000001     -7.308640000000000     -1.252770000000000
H     -11.174280000000000     -9.233499999999999      0.238810000000000
H     -10.435710000000000     -5.351290000000000     -1.429290000000000
H      -7.996710000000000     -5.717470000000000      1.109820000000000
H      -7.859120000000000     -5.075740000000000     -0.536430000000000
C      -5.111630000000000     -5.798540000000000     -1.332340000000000
C      -5.358080000000000     -8.292059999999999     -1.443510000000000
C      -7.048830000000000     -6.862890000000000     -2.589520000000000
H      -4.428860000000000     -5.903900000000000     -0.459150000000000
H      -4.499650000000000     -5.786560000000000     -2.258180000000000
H      -5.629870000000000     -4.822130000000000     -1.242780000000000
H      -6.066290000000000     -9.146730000000000     -1.438200000000000
H      -4.737170000000000     -8.346130000000000     -2.361230000000000
H      -4.690800000000000     -8.417770000000001     -0.573680000000000
H      -7.791520000000000     -7.686920000000000     -2.567620000000000
H      -7.596880000000000     -5.900260000000000     -2.614140000000000
H      -6.459280000000000     -6.942730000000000     -3.525340000000000
Mg     -6.113560000000000     -6.337410000000000      2.140310000000000
H      -5.403340000000000     -4.098010000000000      3.683280000000000
C      -6.287010000000000     -3.263220000000000      1.849750000000000
C      -5.464000000000000     -4.317890000000000      2.598900000000000
C      -7.675310000000000     -3.062200000000000      2.467290000000000
H      -5.748320000000000     -2.293710000000000      1.897050000000000
H      -6.370760000000000     -3.562370000000000      0.782430000000000
H      -8.249610000000001     -4.001460000000000      2.464700000000000
H      -7.556340000000000     -2.723850000000000      3.518820000000000
C      -8.485530000000001     -2.021940000000000      1.698840000000000
H      -4.435820000000000     -4.307790000000000      2.176360000000000
H      -7.952480000000000     -1.048120000000000      1.680050000000000
H      -8.663360000000001     -2.364260000000000      0.656610000000000
H      -9.468959999999999     -1.879850000000000      2.195880000000000
C      -2.917490000000000     -6.860770000000000      4.196350000000000
C      -2.661660000000000     -7.054630000000000      2.858090000000000
C      -3.653880000000000     -7.879140000000000      2.367880000000000
C      -4.497040000000000     -8.164619999999999      3.361640000000000
N      -4.086740000000000     -7.548350000000000      4.561870000000000
C      -5.752690000000000     -8.981380000000000      3.214540000000000
N      -6.911650000000000     -8.092490000000000      2.987220000000000
C      -7.855890000000000     -7.922580000000000      4.109410000000000
H      -1.840060000000000     -6.627170000000000      2.298210000000000
H      -2.321220000000000     -6.260400000000000      4.868390000000000
H      -3.746860000000000     -8.204390000000000      1.347890000000000
H      -5.861310000000000     -9.688440000000000      4.061400000000000
H      -5.639980000000000     -9.612650000000000      2.307330000000000
C      -7.151650000000000     -7.420440000000000      5.380540000000000
C      -8.898289999999999     -6.880670000000000      3.689390000000000
C      -8.599869999999999     -9.252090000000001      4.386910000000000
H      -6.623700000000000     -6.465020000000000      5.173530000000000
H      -7.897640000000000     -7.245990000000000      6.185070000000000
H      -6.421410000000000     -8.163500000000001      5.759000000000000
H      -9.428220000000000     -7.197380000000000      2.771420000000000
H      -9.658780000000000     -6.730320000000000      4.483410000000000
H      -8.399410000000000     -5.916040000000000      3.495030000000000
H      -9.143860000000000     -9.598890000000001      3.481990000000000
H      -7.914630000000000    -10.064790000000000      4.697020000000000
H      -9.348910000000000     -9.118969999999999      5.194570000000000

-C 0
6-31g(d,p)
****
-H 0
6-31g(d,p)
****
-Mg 0
6-31g(d,p)
****
-N 0
6-31+g(d,p)
****
-Na 0
6-31g(d,p)
****
-O 0
6-31+g(d,p)
****


