%chk=lowest10_c2_a1_speciation0_speciation3_speciationDFT133_rank03_E208.29.chk
%nprocshared=20
%mem=40GB
#p opt=loose PM7/gen scf=xqc 

lowest10_c2_a1_speciation0_speciation3_speciationDFT133_rank03_E208.29 DFT input

0 1
Na     -0.071100000000000      0.215040000000000      0.284400000000000
C      -0.129730000000000     -2.640410000000000      1.583910000000000
C      -0.422020000000000     -1.042490000000000      3.284940000000000
O       0.020250000000000     -1.288710000000000      1.967800000000000
C      -1.500440000000000     -2.893900000000000      0.962680000000000
C       0.731280000000000     -1.204500000000000      4.266810000000000
H       0.638090000000000     -2.852450000000000      0.811520000000000
H       0.069210000000000     -3.346380000000000      2.418610000000000
H      -0.777120000000000      0.010210000000000      3.330860000000000
H      -1.290990000000000     -1.673570000000000      3.575100000000000
H       1.565980000000000     -0.525380000000000      3.989920000000000
H       0.386800000000000     -0.952860000000000      5.290980000000000
H       1.099560000000000     -2.250680000000000      4.258040000000000
H      -1.666570000000000     -2.216820000000000      0.099540000000000
H      -1.550530000000000     -3.941850000000000      0.602010000000000
H      -2.305950000000000     -2.736160000000000      1.708110000000000
C       0.200620000000000      3.115210000000000     -1.022660000000000
C       1.414230000000000      3.011030000000000      0.978730000000000
O       0.399970000000000      2.428350000000000      0.193590000000000
C       1.160710000000000      2.629860000000000     -2.107180000000000
C       1.657520000000000      2.110870000000000      2.186410000000000
H      -0.830250000000000      2.879160000000000     -1.361840000000000
H       0.242670000000000      4.219580000000000     -0.899790000000000
H       2.371060000000000      3.089800000000000      0.419650000000000
H       1.094040000000000      4.010420000000000      1.343960000000000
H       1.979690000000000      1.099670000000000      1.856530000000000
H       2.448090000000000      2.542030000000000      2.835060000000000
H       0.723670000000000      2.007810000000000      2.778750000000000
H       1.084480000000000      1.529200000000000     -2.224240000000000
H       0.897140000000000      3.107610000000000     -3.073970000000000
H       2.207490000000000      2.896020000000000     -1.859020000000000
C      -3.055820000000000      1.059120000000000     -0.317810000000000
C      -2.410840000000000     -0.289690000000000     -2.131630000000000
O      -2.000780000000000      0.360870000000000     -0.947790000000000
C      -3.758040000000000      0.174000000000000      0.706860000000000
C      -2.202230000000000      0.615880000000000     -3.339900000000000
H      -2.611840000000000      1.923820000000000      0.220490000000000
H      -3.783990000000000      1.485210000000000     -1.043350000000000
H      -1.774180000000000     -1.190140000000000     -2.256490000000000
H      -3.459080000000000     -0.659560000000000     -2.081580000000000
H      -1.140270000000000      0.934670000000000     -3.402310000000000
H      -2.464000000000000      0.063830000000000     -4.266470000000000
H      -2.845060000000000      1.516530000000000     -3.263670000000000
H      -3.029980000000000     -0.190870000000000      1.462460000000000
H      -4.544350000000000      0.761720000000000      1.225840000000000
H      -4.232890000000000     -0.696290000000000      0.209100000000000
C       1.365530000000000     -1.480030000000000     -2.342180000000000
C       2.705610000000000     -1.155020000000000     -0.438930000000000
O       1.436170000000000     -0.960710000000000     -1.030600000000000
C       0.890660000000000     -2.929670000000000     -2.328410000000000
C       3.627020000000000      0.025710000000000     -0.724160000000000
H       0.620610000000000     -0.875240000000000     -2.900400000000000
H       2.323070000000000     -1.377380000000000     -2.898840000000000
H       2.558200000000000     -1.217090000000000      0.660580000000000
H       3.180100000000000     -2.114290000000000     -0.742570000000000
H       3.165190000000000      0.965660000000000     -0.362730000000000
H       4.592270000000000     -0.120770000000000     -0.195720000000000
H       3.822830000000000      0.116320000000000     -1.811710000000000
H      -0.090620000000000     -3.009080000000000     -1.815160000000000
H       0.776460000000000     -3.290450000000000     -3.371970000000000
H       1.624680000000000     -3.575690000000000     -1.804820000000000
Na     -6.397520000000000    -17.403670000000002     -1.003490000000000
C      -2.942610000000000    -16.741800000000001     -1.002410000000000
C      -4.100050000000000    -14.743490000000000     -1.003560000000000
O      -4.220330000000000    -16.147210000000001     -0.996130000000000
C      -3.118240000000000    -18.253699999999998     -1.000580000000000
C      -5.497140000000000    -14.140499999999999     -0.998520000000000
H      -2.377520000000000    -16.462070000000001     -1.920740000000000
H      -2.369260000000000    -16.460220000000000     -0.089940000000000
H      -3.565650000000000    -14.385199999999999     -0.094090000000000
H      -3.584040000000000    -14.396599999999999     -1.926050000000000
H      -6.048670000000000    -14.467980000000001     -0.091370000000000
H      -5.434040000000000    -13.032190000000000     -1.002700000000000
H      -6.056180000000000    -14.473540000000000     -1.899250000000000
H      -3.685290000000000    -18.570499999999999     -1.902190000000000
H      -2.127220000000000    -18.753679999999999     -1.003410000000000
H      -3.679370000000000    -18.568890000000000     -0.094740000000000
Mg      2.639080000000000    -13.849919999999999     -0.441150000000000
C       0.985290000000000    -12.017139999999999      1.305590000000000
C      -0.460450000000000    -12.344390000000001     -0.527190000000000
O       0.820180000000000    -12.542579999999999      0.010490000000000
C       0.781650000000000    -13.093560000000000      2.357360000000000
C      -0.617670000000000    -13.309300000000000     -1.694340000000000
H       2.028670000000000    -11.646860000000000      1.384140000000000
H       0.332530000000000    -11.158870000000000      1.509640000000000
H      -1.268340000000000    -12.547060000000000      0.210070000000000
H      -0.538590000000000    -11.315750000000000     -0.920960000000000
H      -0.588410000000000    -14.355840000000001     -1.327320000000000
H      -1.576190000000000    -13.125950000000000     -2.218930000000000
H       0.215520000000000    -13.178660000000001     -2.415660000000000
H       1.500350000000000    -13.924410000000000      2.194320000000000
H       0.956820000000000    -12.658300000000001      3.364260000000000
H      -0.255120000000000    -13.483720000000000      2.306140000000000
H       1.502250000000000    -16.340380000000000     -0.396540000000000
C       3.147730000000000    -16.857370000000000     -1.764390000000000
C       1.950110000000000    -16.020080000000000     -1.360010000000000
C       4.234470000000000    -16.854740000000000     -0.681520000000000
H       2.793760000000000    -17.891130000000000     -1.941240000000000
H       3.564110000000000    -16.446909999999999     -2.709260000000000
H       4.615070000000000    -15.830650000000000     -0.517050000000000
H       3.819370000000000    -17.230270000000001      0.278310000000000
C       5.406800000000000    -17.733480000000000     -1.098270000000000
H       1.192830000000000    -15.950989999999999     -2.165340000000000
H       5.056260000000000    -18.774139999999999     -1.260820000000000
H       5.861320000000000    -17.347390000000001     -2.036050000000000
H       6.180080000000000    -17.734839999999998     -0.301430000000000
C       4.842080000000000    -14.175280000000001      1.616190000000000
C       6.084880000000000    -13.670080000000000      1.927800000000000
C       6.351770000000000    -12.674049999999999      1.002930000000000
C       5.262170000000000    -12.624770000000000      0.159820000000000
N       4.367780000000000    -13.542630000000001      0.534410000000000
C       5.060180000000000    -11.690260000000000     -0.997400000000000
N       3.940330000000000    -12.112370000000000     -1.863030000000000
C       4.330860000000000    -12.671030000000000     -3.177240000000000
H       6.721030000000000    -13.996720000000000      2.737380000000000
H       4.314050000000000    -14.965960000000001      2.135610000000000
H       7.243000000000000    -12.067159999999999      0.943430000000000
H       4.822410000000000    -10.709190000000000     -0.576910000000000
H       6.004800000000000    -11.549140000000000     -1.548580000000000
C       5.370390000000000    -13.795070000000001     -3.015050000000000
C       3.087940000000000    -13.288430000000000     -3.847790000000000
C       4.862390000000000    -11.550420000000001     -4.092400000000000
H       4.956870000000000    -14.577070000000001     -2.354830000000000
H       5.615470000000000    -14.248020000000000     -3.997060000000000
H       6.317050000000000    -13.437680000000000     -2.568160000000000
H       2.310600000000000    -12.535050000000000     -4.029940000000000
H       3.348930000000000    -13.727069999999999     -4.835840000000000
H       2.644950000000000    -14.084300000000001     -3.218350000000000
H       4.097000000000000    -10.754460000000000     -4.210720000000000
H       5.778140000000000    -11.083729999999999     -3.683930000000000
H       5.109480000000000    -11.948620000000000     -5.098250000000000
Mg      2.201310000000000    -10.083299999999999     -1.685430000000000
C       3.090400000000000     -7.446420000000000     -3.030910000000000
C       5.267250000000000     -8.336280000000000     -2.671150000000000
O       3.872890000000000     -8.503810000000000     -2.513080000000000
C       3.061840000000000     -7.416520000000000     -4.555220000000000
C       5.825710000000000     -7.076600000000000     -2.012280000000000
H       2.061490000000000     -7.616770000000000     -2.666510000000000
H       3.362310000000000     -6.461190000000000     -2.609660000000000
H       5.740640000000000     -9.187480000000001     -2.143650000000000
H       5.568300000000000     -8.426710000000000     -3.734560000000000
H       5.488810000000000     -7.012090000000000     -0.956470000000000
H       6.933210000000000     -7.117700000000000     -2.036040000000000
H       5.511670000000000     -6.169050000000000     -2.563950000000000
H       2.740150000000000     -8.392120000000000     -4.964090000000000
H       2.341840000000000     -6.640000000000000     -4.887830000000000
H       4.062480000000000     -7.170870000000000     -4.959090000000000
H       1.794540000000000    -10.304110000000000     -4.359420000000000
C      -0.063150000000000     -9.277860000000000     -3.974140000000000
C       1.007420000000000    -10.302560000000000     -3.581870000000000
C      -0.510360000000000     -9.409350000000000     -5.440060000000000
H      -0.948460000000000     -9.380549999999999     -3.316040000000000
H       0.346780000000000     -8.258870000000000     -3.861500000000000
H      -1.256110000000000     -8.610550000000000     -5.642590000000000
H       0.360260000000000     -9.244040000000000     -6.112450000000000
C      -1.148110000000000    -10.757230000000000     -5.771810000000000
H       0.535930000000000    -11.300120000000000     -3.578560000000000
H      -0.416370000000000    -11.583240000000000     -5.655900000000000
H      -2.024590000000000    -10.941010000000000     -5.116050000000000
H      -1.486990000000000    -10.749150000000000     -6.829520000000000
C      -2.286590000000000     -9.202790000000000      2.015890000000000
C      -2.383950000000000     -7.824790000000000      1.961960000000000
C      -1.494280000000000     -7.394490000000000      0.995230000000000
C      -0.908920000000000     -8.482600000000000      0.532540000000000
N      -1.422440000000000     -9.620189999999999      1.168180000000000
C       0.157250000000000     -8.523520000000000     -0.506700000000000
N       1.385810000000000     -9.140560000000001     -0.001970000000000
C       2.222840000000000     -8.354170000000000      0.965550000000000
H      -3.021360000000000     -7.201970000000000      2.572090000000000
H      -2.835270000000000     -9.866310000000000      2.665630000000000
H      -1.287860000000000     -6.381990000000000      0.685690000000000
H       0.358520000000000     -7.539040000000000     -0.971410000000000
H      -0.227120000000000     -9.163550000000001     -1.305690000000000
C       1.681720000000000     -8.541980000000001      2.397170000000000
C       3.666740000000000     -8.880950000000000      0.974700000000000
C       2.284570000000000     -6.844890000000000      0.633300000000000
H       1.685730000000000     -9.615420000000000      2.676430000000000
H       2.317060000000000     -8.003539999999999      3.132080000000000
H       0.657440000000000     -8.153290000000000      2.513260000000000
H       4.139750000000000     -8.724780000000001     -0.008850000000000
H       4.284010000000000     -8.327209999999999      1.719170000000000
H       3.702660000000000     -9.954409999999999      1.251010000000000
H       2.717940000000000     -6.682140000000000     -0.371530000000000
H       1.284090000000000     -6.371830000000000      0.680910000000000
H       2.923610000000000     -6.309910000000000      1.368820000000000

-C 0
6-31g(d,p)
****
-H 0
6-31g(d,p)
****
-Mg 0
6-31g(d,p)
****
-N 0
6-31+g(d,p)
****
-Na 0
6-31g(d,p)
****
-O 0
6-31+g(d,p)
****


