%chk=lowest10_c2_a1_speciation0_speciation3_speciationDFT133_rank02_E208.18.chk
%nprocshared=20
%mem=40GB
#p opt=loose PM7/gen scf=xqc 

lowest10_c2_a1_speciation0_speciation3_speciationDFT133_rank02_E208.18 DFT input

0 1
Na     -0.352360000000000     -0.036860000000000      0.119450000000000
C       0.215670000000000      3.002360000000000      0.666460000000000
C      -2.005720000000000      2.537320000000000      1.281500000000000
O      -0.880810000000000      2.120380000000000      0.538760000000000
C       1.100890000000000      2.622100000000000      1.850000000000000
C      -2.910510000000000      3.409710000000000      0.421060000000000
H       0.824060000000000      2.910370000000000     -0.256850000000000
H      -0.097000000000000      4.067090000000000      0.725460000000000
H      -2.571970000000000      1.627090000000000      1.576450000000000
H      -1.732750000000000      3.051150000000000      2.229770000000000
H      -3.214300000000000      2.857190000000000     -0.493780000000000
H      -3.819340000000000      3.683920000000000      0.995260000000000
H      -2.379920000000000      4.336960000000000      0.122760000000000
H       1.446670000000000      1.572150000000000      1.753450000000000
H       1.990070000000000      3.286790000000000      1.870250000000000
H       0.550300000000000      2.736020000000000      2.805720000000000
C      -0.973350000000000     -3.079000000000000     -0.640950000000000
C      -2.744420000000000     -1.696820000000000     -1.305620000000000
O      -1.604920000000000     -1.826500000000000     -0.487290000000000
C       0.008420000000000     -3.073290000000000     -1.811080000000000
C      -3.255960000000000     -0.264240000000000     -1.187170000000000
H      -0.386600000000000     -3.260850000000000      0.284320000000000
H      -1.700880000000000     -3.916610000000000     -0.717610000000000
H      -2.504580000000000     -1.880550000000000     -2.374760000000000
H      -3.546110000000000     -2.385670000000000     -0.962990000000000
H      -2.476780000000000      0.453890000000000     -1.522290000000000
H      -4.160750000000000     -0.125700000000000     -1.814780000000000
H      -3.513610000000000     -0.037870000000000     -0.130780000000000
H       0.734520000000000     -2.242010000000000     -1.700080000000000
H       0.569020000000000     -4.030150000000000     -1.827890000000000
H      -0.524610000000000     -2.962940000000000     -2.776370000000000
C       0.186590000000000     -1.615550000000000      2.804650000000000
C       2.297600000000000     -1.350690000000000      1.806260000000000
O       0.903330000000000     -1.178390000000000      1.667680000000000
C      -0.020840000000000     -0.469520000000000      3.789430000000000
C       2.727330000000000     -2.702730000000000      1.248730000000000
H      -0.812260000000000     -1.959410000000000      2.460330000000000
H       0.661350000000000     -2.489700000000000      3.303480000000000
H       2.793990000000000     -0.554610000000000      1.213310000000000
H       2.648600000000000     -1.216780000000000      2.853770000000000
H       2.412240000000000     -2.798330000000000      0.188170000000000
H       3.832350000000000     -2.791360000000000      1.302260000000000
H       2.271050000000000     -3.525740000000000      1.835850000000000
H      -0.553720000000000      0.370150000000000      3.294370000000000
H      -0.633010000000000     -0.823890000000000      4.645370000000000
H       0.954030000000000     -0.105530000000000      4.173980000000000
C       2.474650000000000      0.227360000000000     -1.830620000000000
C       0.520020000000000      1.227000000000000     -2.668500000000000
O       1.110480000000000      0.512360000000000     -1.600810000000000
C       3.361420000000000      1.340280000000000     -1.282290000000000
C      -0.075510000000000      0.273900000000000     -3.698350000000000
H       2.716290000000000     -0.709570000000000     -1.286700000000000
H       2.699480000000000      0.027610000000000     -2.901620000000000
H      -0.306900000000000      1.838310000000000     -2.247810000000000
H       1.222460000000000      1.944260000000000     -3.147930000000000
H      -0.815230000000000     -0.394510000000000     -3.215230000000000
H      -0.589010000000000      0.857630000000000     -4.490770000000000
H       0.717890000000000     -0.344740000000000     -4.164390000000000
H       3.162470000000000      1.494330000000000     -0.200990000000000
H       4.427740000000000      1.060520000000000     -1.411990000000000
H       3.172270000000000      2.290300000000000     -1.822440000000000
Na     -4.389770000000000    -17.481030000000001     -3.263650000000000
C      -0.929430000000000    -16.815760000000001     -3.262490000000000
C      -2.086810000000000    -14.817850000000000     -3.263770000000000
O      -2.207380000000000    -16.221579999999999     -3.256030000000000
C      -1.104150000000000    -18.327690000000000     -3.260710000000000
C      -3.483500000000000    -14.214160000000000     -3.258530000000000
H      -0.364520000000000    -16.535760000000000     -4.180860000000000
H      -0.356080000000000    -16.533950000000001     -2.350080000000000
H      -1.552010000000000    -14.459530000000001     -2.354540000000000
H      -1.571020000000000    -14.471360000000001     -4.186510000000000
H      -4.034960000000000    -14.541110000000000     -2.351170000000000
H      -3.419530000000000    -13.105880000000001     -3.262930000000000
H      -4.042840000000000    -14.546970000000000     -4.159150000000000
H      -1.671000000000000    -18.644760000000002     -4.162330000000000
H      -0.112710000000000    -18.826840000000001     -3.263650000000000
H      -1.664930000000000    -18.643219999999999     -2.354790000000000
Mg      4.654510000000000    -13.930310000000000     -2.701860000000000
C       2.996490000000000    -12.092180000000001     -0.953870000000000
C       1.551370000000000    -12.419210000000000     -2.786180000000000
O       2.832560000000000    -12.617760000000001     -2.249190000000000
C       2.793640000000000    -13.169240000000000      0.097440000000000
C       1.392750000000000    -13.384119999999999     -3.952960000000000
H       4.039280000000000    -11.720630000000000     -0.874870000000000
H       2.342360000000000    -11.234480000000000     -0.749500000000000
H       0.743720000000000    -12.621689999999999     -2.048430000000000
H       1.472730000000000    -11.390290000000000     -3.179630000000000
H       1.422370000000000    -14.430580000000001     -3.585650000000000
H       0.433610000000000    -13.200760000000001     -4.476450000000000
H       2.225110000000000    -13.253340000000000     -4.675130000000000
H       3.512110000000000    -14.000010000000000     -0.066970000000000
H       2.969730000000000    -12.734760000000000      1.104510000000000
H       1.756780000000000    -13.559369999999999      0.046970000000000
H       3.512540000000000    -16.424769999999999     -2.659600000000000
C       5.159460000000000    -16.937600000000000     -4.026400000000000
C       3.960180000000000    -16.102080000000001     -3.622380000000000
C       6.245570000000000    -16.932729999999999     -2.943000000000000
H       4.807690000000000    -17.972210000000000     -4.203290000000000
H       5.575670000000000    -16.526470000000000     -4.971090000000000
H       6.623510000000000    -15.907629999999999     -2.778750000000000
H       5.830680000000000    -17.309000000000001     -1.983350000000000
C       7.420230000000000    -17.809030000000000     -3.358550000000000
H       3.202720000000000    -16.036169999999998     -4.427880000000000
H       7.072440000000000    -18.850719999999999     -3.520490000000000
H       7.874430000000000    -17.422570000000000     -4.296310000000000
H       8.193030000000000    -17.807890000000000     -2.561230000000000
C       6.859840000000000    -14.249990000000000     -0.645010000000000
C       8.100500000000000    -13.741160000000001     -0.330350000000000
C       8.366250000000001    -12.744199999999999     -1.254280000000000
C       7.278680000000000    -12.698169999999999     -2.100180000000000
N       6.385130000000000    -13.618380000000000     -1.727140000000000
C       7.078590000000000    -11.765040000000001     -3.258570000000000
N       5.957950000000000    -12.187040000000000     -4.123150000000000
C       6.347170000000000    -12.746400000000000     -5.437740000000000
H       8.735889999999999    -14.065750000000000      0.480630000000000
H       6.333360000000000    -15.042350000000001     -0.126460000000000
H       9.255820000000000    -12.134390000000000     -1.311360000000000
H       6.844550000000000    -10.781750000000001     -2.840320000000000
H       8.023470000000000    -11.629330000000000     -3.810840000000000
C       7.386770000000000    -13.871160000000000     -5.277440000000000
C       5.103180000000000    -13.363440000000001     -6.106430000000000
C       6.877970000000000    -11.626139999999999     -6.353870000000000
H       6.974500000000000    -14.653950000000000     -4.617160000000000
H       7.630060000000000    -14.323720000000000     -6.260200000000000
H       8.334740000000000    -13.514650000000000     -4.832620000000000
H       4.326050000000000    -12.609400000000001     -6.287680000000000
H       5.362780000000000    -13.802820000000001     -7.094560000000000
H       4.660840000000000    -14.158920000000000     -5.475880000000000
H       6.112590000000000    -10.830030000000001     -6.471440000000000
H       7.794380000000000    -11.159560000000001     -5.946580000000000
H       7.123670000000000    -12.024620000000001     -7.360010000000000
Mg      4.213330000000000    -10.153190000000000     -3.944190000000000
C       5.106240000000000     -7.518910000000000     -5.293040000000000
C       7.283250000000000     -8.407830000000001     -4.933130000000000
O       5.888930000000000     -8.575850000000001     -4.774540000000000
C       5.077690000000000     -7.489770000000000     -6.817460000000000
C       7.841900000000000     -7.148980000000000     -4.272570000000000
H       4.077140000000000     -7.689030000000000     -4.928660000000000
H       5.378310000000000     -6.533530000000000     -4.872280000000000
H       7.757170000000000     -9.259919999999999     -4.407480000000000
H       7.583740000000000     -8.496370000000001     -5.996830000000000
H       7.506420000000000     -7.086730000000000     -3.216130000000000
H       8.949410000000000     -7.189180000000000     -4.297990000000000
H       7.526880000000000     -6.240360000000000     -4.821950000000000
H       4.755710000000000     -8.465560000000000     -7.225640000000000
H       4.357880000000000     -6.713320000000000     -7.150660000000000
H       6.078240000000000     -7.244200000000000     -7.221650000000000
H       3.807640000000000    -10.376740000000000     -6.617570000000000
C       1.949160000000000     -9.351129999999999     -6.234030000000000
C       3.019950000000000    -10.375320000000000     -5.840600000000000
C       1.502130000000000     -9.483760000000000     -7.700060000000000
H       1.063740000000000     -9.453150000000001     -5.575950000000000
H       2.359220000000000     -8.332039999999999     -6.122060000000000
H       0.756380000000000     -8.685150000000000     -7.903460000000000
H       2.372840000000000     -9.318949999999999     -8.372430000000000
C       0.864380000000000    -10.831830000000000     -8.031219999999999
H       2.549290000000000    -11.373329999999999     -5.836870000000000
H       1.596040000000000    -11.657780000000001     -7.914540000000000
H      -0.012440000000000    -11.015200000000000     -7.375820000000000
H       0.525900000000000    -10.824360000000000     -9.089110000000000
C      -0.279060000000000     -9.273090000000000     -0.241510000000000
C      -0.374970000000000     -7.896170000000000     -0.296780000000000
C       0.515220000000000     -7.464950000000000     -1.262760000000000
C       1.100320000000000     -8.554220000000001     -1.724410000000000
N       0.588190000000000     -9.691319999999999     -1.090810000000000
C       2.167320000000000     -8.595230000000001     -2.764590000000000
N       3.395030000000000     -9.213860000000000     -2.259840000000000
C       4.233740000000000     -8.428360000000000     -1.293220000000000
H      -1.013370000000000     -7.272490000000000      0.312870000000000
H      -0.827040000000000     -9.937239999999999      0.406280000000000
H       0.720900000000000     -6.453020000000000     -1.571680000000000
H       2.369430000000000     -7.610930000000000     -3.228930000000000
H       1.782110000000000     -9.234790000000000     -3.563660000000000
C       3.693810000000000     -8.614649999999999      0.139110000000000
C       5.676900000000000     -8.956910000000001     -1.286630000000000
C       4.296990000000000     -6.919460000000000     -1.625690000000000
H       3.696520000000000     -9.687889999999999      0.419070000000000
H       4.330710000000000     -8.076430000000000      0.872960000000000
H       2.670100000000000     -8.224230000000000      0.255850000000000
H       6.147970000000000     -8.800950000000000     -2.271220000000000
H       6.296170000000000     -8.404130000000000     -0.543120000000000
H       5.712010000000000    -10.030650000000000     -1.011500000000000
H       4.728590000000000     -6.757750000000000     -2.631520000000000
H       3.297040000000000     -6.445480000000000     -1.576060000000000
H       4.938100000000000     -6.385100000000000     -0.891440000000000

-C 0
6-31g(d,p)
****
-H 0
6-31g(d,p)
****
-Mg 0
6-31g(d,p)
****
-N 0
6-31+g(d,p)
****
-Na 0
6-31g(d,p)
****
-O 0
6-31+g(d,p)
****


