%chk=lowest10_c2_a1_speciation0_speciation0_speciationDFT39_rank06_E166.18.chk
%nprocshared=20
%mem=40GB
#p opt=loose PM7/gen scf=xqc 

lowest10_c2_a1_speciation0_speciation0_speciationDFT39_rank06_E166.18 DFT input

0 1
Na      1.853520000000000     -0.990500000000000      0.000930000000000
C      -1.258090000000000      0.138110000000000      1.003420000000000
C      -0.679580000000000      1.140150000000000     -1.000920000000000
O      -0.273220000000000      0.235850000000000      0.000380000000000
C      -0.770840000000000     -0.849120000000000      2.055990000000000
C       0.416580000000000      1.208150000000000     -2.056420000000000
H      -1.417870000000000      1.121620000000000      1.500920000000000
H      -2.214690000000000     -0.249220000000000      0.584780000000000
H      -1.613810000000000      0.791060000000000     -1.496620000000000
H      -0.817330000000000      2.162470000000000     -0.581130000000000
H       0.580760000000000      0.202010000000000     -2.498720000000000
H       0.129410000000000      1.913540000000000     -2.864010000000000
H       1.366240000000000      1.555670000000000     -1.595700000000000
H       0.184260000000000     -0.492430000000000      2.497990000000000
H      -1.524620000000000     -0.954370000000000      2.864120000000000
H      -0.599760000000000     -1.842970000000000      1.590910000000000
Na     -0.126400000000000    -13.402950000000001     12.475960000000001
C       0.451740000000000    -10.867050000000001     10.081049999999999
C      -0.704780000000000    -12.596909999999999      9.082420000000001
O      -0.124750000000000    -12.137330000000000     10.281540000000000
C       1.059820000000000    -10.402419999999999     11.396540000000000
C      -1.316250000000000    -13.966790000000000      9.337339999999999
H       1.266640000000000    -10.916399999999999      9.323359999999999
H      -0.319940000000000    -10.123370000000000      9.777160000000000
H      -1.519460000000000    -11.914730000000000      8.750570000000000
H       0.065120000000000    -12.706429999999999      8.284840000000001
H      -2.094770000000000    -13.893100000000000     10.126740000000000
H      -1.780910000000000    -14.355520000000000      8.407130000000000
H      -0.530030000000000    -14.676640000000001      9.672850000000000
H       1.838010000000000    -11.122249999999999     11.729559999999999
H       1.524000000000000     -9.402080000000000     11.269819999999999
H       0.271490000000000    -10.338640000000000     12.177020000000001
Mg     -0.390270000000000     -8.212310000000000      2.496800000000000
H       1.067930000000000     -5.817150000000000      2.851400000000000
C      -1.008010000000000     -5.328920000000000      2.346590000000000
C       0.257490000000000     -6.157180000000000      2.174210000000000
C      -1.466710000000000     -5.397600000000000      3.799060000000000
H      -0.842420000000000     -4.271750000000000      2.053750000000000
H      -1.787110000000000     -5.759460000000000      1.683130000000000
H      -1.480260000000000     -6.446560000000000      4.123120000000000
H      -0.741050000000000     -4.858740000000000      4.443710000000000
C      -2.866540000000000     -4.821750000000000      3.974710000000000
H       0.605260000000000     -6.078880000000000      1.120920000000000
H      -2.890750000000000     -3.757870000000000      3.662020000000000
H      -3.596400000000000     -5.401410000000000      3.367080000000000
H      -3.164450000000000     -4.897990000000000      5.041540000000000
C      -5.246310000000000     -9.006970000000001      0.477320000000000
C      -4.823050000000000     -8.604760000000001      1.732310000000000
C      -3.485150000000000     -8.287750000000001      1.605620000000000
C      -3.158620000000000     -8.500050000000000      0.342640000000000
N      -4.287130000000000     -8.945470000000000     -0.370000000000000
C      -1.794000000000000     -8.300090000000001     -0.253830000000000
N      -0.893440000000000     -9.387900000000000      0.172520000000000
C      -0.454580000000000    -10.315820000000000     -0.893970000000000
H      -5.421250000000000     -8.548819999999999      2.633740000000000
H      -6.245270000000000     -9.333040000000000      0.223550000000000
H      -2.826180000000000     -7.923420000000000      2.369070000000000
H      -1.386770000000000     -7.325920000000000      0.075060000000000
H      -1.877370000000000     -8.213710000000001     -1.350250000000000
C       0.561430000000000     -9.597740000000000     -1.798990000000000
C       0.240510000000000    -11.533220000000000     -0.253210000000000
C      -1.650430000000000    -10.875510000000000     -1.697790000000000
H       1.418060000000000     -9.232810000000001     -1.189690000000000
H       0.952250000000000    -10.285110000000000     -2.576670000000000
H       0.109270000000000     -8.719170000000000     -2.300160000000000
H      -0.449370000000000    -12.053360000000000      0.439060000000000
H       0.560230000000000    -12.261670000000001     -1.027830000000000
H       1.150880000000000    -11.257460000000000      0.298460000000000
H      -2.360240000000000    -11.384700000000000     -1.011130000000000
H      -2.207040000000000    -10.100970000000000     -2.255120000000000
H      -1.294600000000000    -11.612750000000000     -2.447520000000000
Mg     -1.866530000000000    -10.842240000000000      2.023160000000000
H      -4.143590000000000    -12.311019999999999      2.652820000000000
C      -3.066800000000000    -13.607450000000000      1.247960000000000
C      -3.501100000000000    -12.228690000000000      1.753280000000000
C      -2.368770000000000    -14.447609999999999      2.323000000000000
H      -3.987540000000000    -14.151280000000000      0.948450000000000
H      -2.423200000000000    -13.508950000000000      0.345970000000000
H      -3.019860000000000    -14.492160000000000      3.222680000000000
H      -2.236070000000000    -15.480630000000000      1.937020000000000
C      -0.991900000000000    -13.921530000000001      2.705590000000000
H      -4.096470000000000    -11.746760000000000      0.947290000000000
H      -0.307580000000000    -13.952480000000000      1.832880000000000
H      -1.064640000000000    -12.888249999999999      3.074300000000000
H      -0.564880000000000    -14.554550000000001      3.511420000000000
C       3.563650000000000     -8.532859999999999      3.836880000000000
C       3.452780000000000     -8.536230000000000      2.466400000000000
C       2.376200000000000     -9.336819999999999      2.144300000000000
C       1.841700000000000     -9.804800000000000      3.277440000000000
N       2.555380000000000     -9.331370000000000      4.396440000000000
C       0.673740000000000    -10.750290000000000      3.377320000000000
N      -0.614760000000000    -10.042809999999999      3.503300000000000
C      -1.229250000000000     -9.984120000000001      4.860010000000000
H       4.097340000000000     -8.010339999999999      1.774750000000000
H       4.311310000000000     -8.001480000000001      4.406450000000000
H       2.044850000000000     -9.532950000000000      1.141240000000000
H       0.864870000000000    -11.511160000000000      4.153410000000000
H       0.635410000000000    -11.333080000000001      2.443830000000000
C      -0.313220000000000     -9.213360000000000      5.827010000000000
C      -2.588130000000000     -9.265969999999999      4.791000000000000
C      -1.532080000000000    -11.394900000000000      5.414200000000000
H      -0.105700000000000     -8.194960000000000      5.430110000000000
H      -0.784770000000000     -9.114530000000000      6.827080000000000
H       0.645960000000000     -9.746610000000000      5.969440000000000
H      -3.278930000000000     -9.787140000000001      4.095070000000000
H      -3.067090000000000     -9.233820000000000      5.794160000000000
H      -2.484670000000000     -8.227090000000000      4.472380000000000
H      -2.234650000000000    -11.927640000000000      4.739660000000000
H      -0.630100000000000    -12.016120000000001      5.559570000000000
H      -2.021890000000000    -11.316900000000000      6.407480000000000

-C 0
6-31g(d,p)
****
-H 0
6-31g(d,p)
****
-Mg 0
6-31g(d,p)
****
-N 0
6-31+g(d,p)
****
-Na 0
6-31g(d,p)
****
-O 0
6-31+g(d,p)
****


