%chk=lowest10_c2_a1_speciation0_speciation0_speciationDFT133_rank04_E170.51.chk
%nprocshared=20
%mem=40GB
#p opt=loose PM7/gen scf=xqc 

lowest10_c2_a1_speciation0_speciation0_speciationDFT133_rank04_E170.51 DFT input

0 1
Na      0.001150000000000      2.193640000000000      0.000710000000000
C       0.581330000000000     -1.041900000000000     -1.001840000000000
C      -0.577650000000000     -1.043260000000000      1.003640000000000
O      -0.001840000000000     -0.240060000000000     -0.000830000000000
C       1.185920000000000     -0.123550000000000     -2.057020000000000
C      -1.187580000000000     -0.124780000000000      2.055950000000000
H       1.400620000000000     -1.666960000000000     -0.581410000000000
H      -0.185290000000000     -1.679950000000000     -1.497470000000000
H      -1.391730000000000     -1.678410000000000      0.586520000000000
H       0.194270000000000     -1.673480000000000      1.500980000000000
H      -1.964550000000000      0.521120000000000      1.592960000000000
H      -1.654350000000000     -0.722620000000000      2.866410000000000
H      -0.400630000000000      0.524830000000000      2.496250000000000
H       1.960050000000000      0.527120000000000     -1.596090000000000
H       1.655310000000000     -0.721910000000000     -2.865660000000000
H       0.395700000000000      0.520800000000000     -2.499050000000000
Na      9.939750000000000    -12.956510000000000      5.033900000000000
C       6.960930000000000    -11.127810000000000      4.592240000000000
C       7.541570000000000    -12.127940000000001      2.593750000000000
O       7.900070000000000    -11.955990000000000      3.945390000000000
C       7.387640000000000    -10.962640000000000      6.043830000000000
C       8.577560000000000    -13.023600000000000      1.930620000000000
H       6.932450000000000    -10.117060000000000      4.124830000000000
H       5.948460000000000    -11.591930000000000      4.581260000000000
H       6.548250000000000    -12.624620000000000      2.505770000000000
H       7.543410000000000    -11.152950000000001      2.058060000000000
H       8.609650000000000    -14.009639999999999      2.441520000000000
H       8.319410000000000    -13.178350000000000      0.862080000000000
H       9.581750000000000    -12.552170000000000      1.994710000000000
H       8.395630000000001    -10.497430000000000      6.091960000000000
H       6.665140000000000    -10.315120000000000      6.583120000000000
H       7.426050000000000    -11.954800000000001      6.542700000000000
Mg      1.514680000000000     -8.943020000000001      2.267990000000000
C       1.600310000000000    -11.607469999999999      0.837830000000000
C       3.833670000000000    -10.885930000000000      0.606110000000000
O       2.528660000000000    -10.563160000000000      1.009120000000000
C       1.412410000000000    -12.385080000000000      2.128320000000000
C       4.769830000000000     -9.864730000000000      1.237660000000000
H       0.628650000000000    -11.148310000000000      0.561300000000000
H       1.862910000000000    -12.290749999999999      0.022430000000000
H       4.143890000000000    -11.901310000000000      0.938480000000000
H       3.914580000000000    -10.790369999999999     -0.491680000000000
H       4.746470000000000     -9.961790000000001      2.342630000000000
H       5.805530000000000    -10.013990000000000      0.873290000000000
H       4.444910000000000     -8.835490000000000      0.979650000000000
H       1.065010000000000    -11.704330000000001      2.933800000000000
H       0.648440000000000    -13.175870000000000      1.969660000000000
H       2.368440000000000    -12.860180000000000      2.428680000000000
H       2.901960000000000     -9.185040000000001      4.621990000000000
C       2.369160000000000     -7.064200000000000      4.871690000000000
C       2.986150000000000     -8.211690000000001      4.095730000000000
C       0.894480000000000     -7.329410000000000      5.200910000000000
H       2.947700000000000     -6.937910000000000      5.806980000000000
H       2.452760000000000     -6.138840000000000      4.262250000000000
H       0.302820000000000     -7.428920000000000      4.273160000000000
H       0.795180000000000     -8.272300000000000      5.780340000000000
C       0.311910000000000     -6.179330000000000      6.012290000000000
H       4.028090000000000     -7.998520000000000      3.786240000000000
H       0.880680000000000     -6.061730000000000      6.958330000000000
H       0.365110000000000     -5.233810000000000      5.430730000000000
H      -0.751000000000000     -6.389020000000000      6.255590000000000
C      -1.339610000000000     -9.309730000000000      3.216590000000000
C      -2.628470000000000     -8.956560000000000      2.878020000000000
C      -2.539260000000000     -8.235360000000000      1.699420000000000
C      -1.202890000000000     -8.169150000000000      1.376770000000000
N      -0.490410000000000     -8.815560000000000      2.313350000000000
C      -0.592460000000000     -7.511420000000000      0.177330000000000
N       0.871290000000000     -7.368180000000000      0.303530000000000
C       1.356570000000000     -5.989070000000000      0.537370000000000
H      -3.522860000000000     -9.197460000000000      3.430880000000000
H      -1.034440000000000     -9.887540000000000      4.083740000000000
H      -3.358390000000000     -7.794780000000000      1.146510000000000
H      -0.806640000000000     -8.153430000000000     -0.682730000000000
H      -1.103270000000000     -6.557100000000000     -0.038620000000000
C       0.624390000000000     -5.335700000000000      1.724250000000000
C       2.854970000000000     -6.040320000000000      0.894340000000000
C       1.197340000000000     -5.147400000000000     -0.743920000000000
H       0.758940000000000     -5.963790000000000      2.622210000000000
H       1.032750000000000     -4.325240000000000      1.929360000000000
H      -0.461540000000000     -5.224530000000000      1.545590000000000
H       3.451210000000000     -6.463530000000000      0.075310000000000
H       3.250540000000000     -5.018910000000000      1.086720000000000
H       3.032670000000000     -6.659210000000000      1.795200000000000
H       1.741440000000000     -5.622950000000000     -1.587190000000000
H       0.136760000000000     -5.040720000000000     -1.039200000000000
H       1.608340000000000     -4.128310000000000     -0.595980000000000
Mg      1.834080000000000     -8.846840000000000     -1.716430000000000
C       1.323170000000000     -7.720840000000000     -4.550310000000000
C      -0.497660000000000     -6.631320000000000     -3.474820000000000
O       0.599210000000000     -7.514310000000000     -3.353750000000000
C       2.154470000000000     -6.510310000000000     -4.961330000000000
C      -1.546730000000000     -7.071430000000000     -4.494100000000000
H       2.009570000000000     -8.564140000000000     -4.354420000000000
H       0.689590000000000     -8.080660000000000     -5.381660000000000
H      -1.009230000000000     -6.640380000000000     -2.492400000000000
H      -0.161440000000000     -5.587230000000000     -3.637490000000000
H      -1.845170000000000     -8.124760000000000     -4.309940000000000
H      -2.439190000000000     -6.421110000000000     -4.397280000000000
H      -1.164120000000000     -6.963770000000000     -5.527850000000000
H       2.820770000000000     -6.190590000000000     -4.138990000000000
H       2.780320000000000     -6.782210000000000     -5.836790000000000
H       1.498840000000000     -5.663980000000000     -5.241730000000000
H       3.637520000000000     -6.878660000000000     -2.194900000000000
C       4.773150000000000     -8.414160000000001     -3.197980000000000
C       3.872220000000000     -7.949720000000000     -2.047550000000000
C       5.948610000000000     -7.458260000000000     -3.462640000000000
H       5.172730000000000     -9.425570000000000     -2.985880000000000
H       4.183950000000000     -8.453239999999999     -4.131080000000000
H       6.522190000000000     -7.853830000000000     -4.328570000000000
H       5.558230000000000     -6.454200000000000     -3.739620000000000
C       6.903910000000000     -7.313640000000000     -2.279450000000000
H       4.445430000000000     -8.043139999999999     -1.109340000000000
H       6.393060000000000     -6.851690000000000     -1.409530000000000
H       7.311440000000000     -8.304500000000001     -1.989290000000000
H       7.746180000000000     -6.650800000000000     -2.570690000000000
C       3.415720000000000    -14.578379999999999     -1.908420000000000
C       3.252240000000000    -14.790620000000001     -3.259260000000000
C       2.954090000000000    -13.571070000000001     -3.843140000000000
C       2.924130000000000    -12.659210000000000     -2.879120000000000
N       3.232670000000000    -13.223570000000000     -1.628410000000000
C       2.598070000000000    -11.220190000000001     -3.057830000000000
N       1.432890000000000    -10.828700000000000     -2.261020000000000
C       0.078140000000000    -11.280659999999999     -2.724720000000000
H       3.330180000000000    -15.743869999999999     -3.756980000000000
H       3.643310000000000    -15.325600000000000     -1.161920000000000
H       2.750260000000000    -13.384010000000000     -4.888430000000000
H       2.490140000000000    -10.914280000000000     -4.116830000000000
H       3.458930000000000    -10.669689999999999     -2.668900000000000
C      -0.201660000000000    -12.709510000000000     -2.215740000000000
C      -1.017120000000000    -10.383609999999999     -2.126970000000000
C      -0.082580000000000    -11.243169999999999     -4.261800000000000
H      -0.152210000000000    -12.745390000000000     -1.108330000000000
H      -1.218940000000000    -13.041250000000000     -2.514420000000000
H       0.508850000000000    -13.447060000000000     -2.622640000000000
H      -0.911470000000000     -9.350320000000000     -2.496530000000000
H      -2.027970000000000    -10.734769999999999     -2.437980000000000
H      -0.989740000000000    -10.398370000000000     -1.018430000000000
H       0.067210000000000    -10.216430000000001     -4.645800000000000
H       0.626700000000000    -11.929380000000000     -4.764860000000000
H      -1.103220000000000    -11.570830000000001     -4.555660000000000

-C 0
6-31g(d,p)
****
-H 0
6-31g(d,p)
****
-Mg 0
6-31g(d,p)
****
-N 0
6-31+g(d,p)
****
-Na 0
6-31g(d,p)
****
-O 0
6-31+g(d,p)
****


