%chk=lowest10_c2_a1_speciation3_speciation3_speciationDFT11_rank05_E202.38.chk
%nprocshared=20
%mem=40GB
#p opt=loose PM7/gen scf=xqc 

lowest10_c2_a1_speciation3_speciation3_speciationDFT11_rank05_E202.38 DFT input

0 1
Na     -0.302150000000000     -0.129350000000000     -0.210310000000000
C       1.796570000000000      0.271390000000000     -2.518440000000000
C      -0.160090000000000     -0.652010000000000     -3.437340000000000
O       0.595430000000000     -0.428590000000000     -2.266780000000000
C       1.586260000000000      1.780460000000000     -2.437370000000000
C       0.209940000000000     -1.995410000000000     -4.051520000000000
H       2.519370000000000     -0.015190000000000     -1.726820000000000
H       2.265390000000000     -0.017020000000000     -3.484040000000000
H      -1.232910000000000     -0.680840000000000     -3.146960000000000
H      -0.063870000000000      0.170970000000000     -4.180030000000000
H       0.055820000000000     -2.807660000000000     -3.309250000000000
H      -0.429400000000000     -2.189240000000000     -4.937210000000000
H       1.273090000000000     -1.992910000000000     -4.367940000000000
H       1.162950000000000      2.058950000000000     -1.450200000000000
H       2.563000000000000      2.293460000000000     -2.561720000000000
H       0.899140000000000      2.125140000000000     -3.236580000000000
C      -2.338380000000000     -0.726160000000000      2.190130000000000
C      -2.259280000000000     -2.545450000000000      0.718270000000000
O      -1.984980000000000     -1.175540000000000      0.900160000000000
C      -1.213260000000000     -0.964480000000000      3.195250000000000
C      -1.699220000000000     -2.968260000000000     -0.635970000000000
H      -2.494880000000000      0.371130000000000      2.119340000000000
H      -3.301930000000000     -1.156000000000000      2.541970000000000
H      -1.766480000000000     -3.168910000000000      1.494810000000000
H      -3.356320000000000     -2.722520000000000      0.715550000000000
H      -0.600770000000000     -2.802680000000000     -0.668690000000000
H      -1.902750000000000     -4.044220000000000     -0.816340000000000
H      -2.170760000000000     -2.372180000000000     -1.445900000000000
H      -0.269900000000000     -0.508140000000000      2.830860000000000
H      -1.480990000000000     -0.497780000000000      4.166200000000000
H      -1.050920000000000     -2.048340000000000      3.360440000000000
C      -2.152100000000000      2.437400000000000     -0.129260000000000
C      -0.228980000000000      3.027210000000000      1.084230000000000
O      -0.928070000000000      1.995130000000000      0.421680000000000
C      -1.962230000000000      2.894910000000000     -1.571370000000000
C      -0.595750000000000      3.054920000000000      2.562930000000000
H      -2.852110000000000      1.574630000000000     -0.129550000000000
H      -2.638020000000000      3.231490000000000      0.480710000000000
H       0.855430000000000      2.807730000000000      0.996860000000000
H      -0.379260000000000      4.024580000000000      0.613670000000000
H      -0.393340000000000      2.066080000000000      3.025900000000000
H       0.013030000000000      3.824310000000000      3.081630000000000
H      -1.670270000000000      3.299300000000000      2.689830000000000
H      -1.535510000000000      2.070420000000000     -2.181370000000000
H      -2.944830000000000      3.183880000000000     -2.000060000000000
H      -1.281590000000000      3.769920000000000     -1.615250000000000
C       2.487540000000000      0.210480000000000      1.798680000000000
C       2.277440000000000     -1.811230000000000      0.621650000000000
O       1.719100000000000     -0.538170000000000      0.879940000000000
C       3.524750000000000      1.059430000000000      1.071790000000000
C       1.730730000000000     -2.851490000000000      1.591990000000000
H       1.795480000000000      0.891360000000000      2.336750000000000
H       2.964990000000000     -0.422360000000000      2.579390000000000
H       1.977850000000000     -2.108460000000000     -0.406080000000000
H       3.390120000000000     -1.804640000000000      0.629970000000000
H       0.625090000000000     -2.885500000000000      1.530310000000000
H       2.132720000000000     -3.850830000000000      1.325640000000000
H       2.025800000000000     -2.609890000000000      2.633250000000000
H       3.029210000000000      1.721450000000000      0.331120000000000
H       4.067220000000000      1.689580000000000      1.807100000000000
H       4.256330000000000      0.413280000000000      0.545030000000000
Na      1.084830000000000    -10.342580000000000      3.507250000000000
C       3.842720000000000    -10.647399999999999      5.041280000000000
C       4.275480000000000    -10.278130000000001      2.762530000000000
O       3.330910000000000    -10.694229999999999      3.725340000000000
C       3.600770000000000     -9.281620000000000      5.676520000000000
C       5.030230000000000    -11.483860000000000      2.219080000000000
H       3.294970000000000    -11.405939999999999      5.638200000000000
H       4.917270000000000    -10.929700000000000      5.093290000000000
H       3.719690000000000     -9.800179999999999      1.926780000000000
H       4.978570000000000     -9.504600000000000      3.145990000000000
H       4.313590000000000    -12.219519999999999      1.795110000000000
H       5.729560000000000    -11.158500000000000      1.421610000000000
H       5.609280000000000    -11.970350000000000      3.030820000000000
H       2.518870000000000     -9.035510000000000      5.657270000000000
H       3.942950000000000     -9.301119999999999      6.732440000000000
H       4.161130000000000     -8.492290000000001      5.135170000000000
C      -1.752190000000000    -10.273410000000000      1.950290000000000
C      -0.200030000000000    -11.566480000000000      0.772140000000000
O      -0.387670000000000    -10.583340000000000      1.764570000000000
C      -2.407740000000000    -11.222009999999999      2.951650000000000
C       1.272790000000000    -11.960450000000000      0.757660000000000
H      -1.799290000000000     -9.249090000000001      2.377290000000000
H      -2.316680000000000    -10.237120000000001      0.991990000000000
H      -0.789460000000000    -12.483630000000000      0.987420000000000
H      -0.464700000000000    -11.160310000000001     -0.228100000000000
H       1.572930000000000    -12.371950000000000      1.745330000000000
H       1.452540000000000    -12.731430000000000     -0.019540000000000
H       1.902590000000000    -11.072770000000000      0.536470000000000
H      -1.841400000000000    -11.222230000000000      3.905740000000000
H      -3.446300000000000    -10.886369999999999      3.153900000000000
H      -2.445330000000000    -12.255720000000000      2.553290000000000
C       0.361040000000000     -7.246340000000000      3.388040000000000
C      -0.352660000000000     -7.941910000000000      5.512790000000000
O       0.165220000000000     -8.340479999999999      4.261130000000000
C       1.779780000000000     -6.704830000000000      3.517590000000000
C      -1.873830000000000     -8.016930000000000      5.502550000000000
H       0.221630000000000     -7.614260000000000      2.349160000000000
H      -0.389140000000000     -6.436220000000000      3.533050000000000
H       0.029990000000000     -8.649900000000001      6.277250000000000
H      -0.003730000000000     -6.932220000000000      5.827280000000000
H      -2.202010000000000     -9.043160000000000      5.234100000000000
H      -2.265330000000000     -7.766340000000000      6.510220000000000
H      -2.289740000000000     -7.300450000000000      4.764630000000000
H       2.515340000000000     -7.510860000000000      3.310260000000000
H       1.931610000000000     -5.885300000000000      2.785440000000000
H       1.952120000000000     -6.308670000000000      4.539570000000000
C      -0.174880000000000    -11.857460000000000      6.388730000000000
C       1.019760000000000    -13.238009999999999      4.914270000000000
O       0.556630000000000    -11.928820000000000      5.181870000000000
C       0.745780000000000    -11.520820000000001      7.555830000000000
C       0.002360000000000    -14.009980000000001      4.083370000000000
H      -0.919770000000000    -11.041160000000000      6.283140000000000
H      -0.759370000000000    -12.781720000000000      6.597240000000000
H       1.956740000000000    -13.151750000000000      4.323760000000000
H       1.286880000000000    -13.800100000000000      5.837380000000000
H      -0.210800000000000    -13.464320000000001      3.142860000000000
H       0.410740000000000    -15.009700000000000      3.831130000000000
H      -0.943820000000000    -14.140260000000000      4.647100000000000
H       1.284880000000000    -10.571320000000000      7.355790000000000
H       0.143610000000000    -11.403290000000000      8.480820000000000
H       1.487430000000000    -12.330990000000000      7.711190000000000
Mg      6.931270000000000    -19.135570000000001      1.010280000000000
H       5.955020000000000    -17.517410000000002      3.146500000000000
C       7.847350000000000    -16.632390000000001      2.558180000000000
C       6.952680000000000    -17.844370000000001      2.777200000000000
C       7.217900000000000    -15.560480000000000      1.655010000000000
H       8.053590000000000    -16.169570000000000      3.545330000000000
H       8.796860000000001    -16.996700000000001      2.125010000000000
H       6.944430000000000    -15.980350000000000      0.663520000000000
H       6.301840000000000    -15.162020000000000      2.140210000000000
C       8.189360000000001    -14.396839999999999      1.458300000000000
H       7.398790000000000    -18.502890000000001      3.547270000000000
H       8.481629999999999    -13.966510000000000      2.440170000000000
H       9.102990000000000    -14.743880000000001      0.938040000000000
H       7.718800000000000    -13.598960000000000      0.846610000000000
C       2.395410000000000    -15.521420000000001     -0.676050000000000
C       3.491660000000000    -15.145479999999999      0.082660000000000
C       3.420040000000000    -15.866280000000000      1.257860000000000
C       2.343350000000000    -16.631959999999999      1.162280000000000
N       1.696950000000000    -16.404050000000002     -0.064320000000000
C       1.866590000000000    -17.596100000000000      2.202730000000000
N       2.898350000000000    -18.608730000000001      2.452090000000000
C       2.798370000000000    -19.427070000000001      3.684700000000000
H       4.260010000000000    -14.435029999999999     -0.194250000000000
H       2.144520000000000    -15.145720000000001     -1.657080000000000
H       4.102980000000000    -15.832789999999999      2.093770000000000
H       1.641550000000000    -17.009889999999999      3.111210000000000
H       0.941080000000000    -18.093250000000001      1.845510000000000
C       1.490260000000000    -20.238489999999999      3.660070000000000
C       3.982940000000000    -20.402439999999999      3.715360000000000
C       2.856490000000000    -18.568320000000000      4.971970000000000
H       1.444980000000000    -20.857030000000002      2.737730000000000
H       1.424260000000000    -20.911680000000000      4.541580000000000
H       0.606720000000000    -19.566870000000002      3.677800000000000
H       4.943270000000000    -19.845179999999999      3.751200000000000
H       3.933750000000000    -21.057680000000001      4.613780000000000
H       3.975330000000000    -21.045559999999998      2.812350000000000
H       3.802620000000000    -17.988659999999999      5.021790000000000
H       2.003270000000000    -17.866460000000000      5.052630000000000
H       2.803520000000000    -19.222270000000002      5.871200000000000
Mg      4.690600000000000    -18.381530000000001      1.384140000000000
H       5.669300000000000    -19.986940000000001     -0.759510000000000
C       4.292910000000000    -18.571829999999999     -1.661030000000000
C       4.713850000000000    -19.473739999999999     -0.510000000000000
C       5.385510000000000    -17.583100000000002     -2.095330000000000
H       4.044630000000000    -19.212270000000000     -2.532390000000000
H       3.384210000000000    -18.030460000000001     -1.340800000000000
H       5.711480000000000    -16.944690000000001     -1.246620000000000
H       6.263210000000000    -18.148759999999999     -2.474660000000000
C       4.871830000000000    -16.692080000000001     -3.226240000000000
H       3.944210000000000    -20.252250000000000     -0.345220000000000
H       4.531770000000000    -17.312300000000000     -4.083340000000000
H       4.020610000000000    -16.077439999999999     -2.873370000000000
H       5.674870000000000    -16.010990000000000     -3.577490000000000
C      10.356380000000000    -16.938820000000000     -0.182300000000000
C       9.298320000000000    -17.173340000000000     -1.033770000000000
C       8.923679999999999    -18.493279999999999     -0.868810000000000
C       9.712460000000000    -19.036249999999999      0.058050000000000
N      10.655040000000000    -18.105149999999998      0.539730000000000
C       9.632890000000000    -20.454100000000000      0.526850000000000
N       8.311840000000000    -20.714400000000001      1.109910000000000
C       7.903220000000000    -22.124839999999999      1.317490000000000
H       8.851020000000000    -16.450540000000000     -1.703070000000000
H      10.880100000000001    -15.999950000000000     -0.071130000000000
H       8.128670000000000    -19.006440000000001     -1.391350000000000
H       9.828419999999999    -21.098060000000000     -0.350340000000000
H      10.414440000000001    -20.629300000000001      1.294740000000000
C       8.876060000000001    -22.803909999999998      2.298960000000000
C       6.496570000000000    -22.136189999999999      1.930770000000000
C       7.851240000000000    -22.927990000000001     -0.005500000000000
H       8.916969999999999    -22.230100000000000      3.249950000000000
H       8.552030000000000    -23.842320000000001      2.524890000000000
H       9.899789999999999    -22.853149999999999      1.872820000000000
H       5.767220000000000    -21.668350000000000      1.235700000000000
H       6.159700000000000    -23.178200000000000      2.129950000000000
H       6.489440000000000    -21.576830000000001      2.887960000000000
H       7.139230000000000    -22.468160000000001     -0.723320000000000
H       8.843830000000001    -23.010380000000001     -0.490300000000000
H       7.517700000000000    -23.971380000000000      0.192440000000000

-C 0
6-31g(d,p)
****
-H 0
6-31g(d,p)
****
-Mg 0
6-31g(d,p)
****
-N 0
6-31+g(d,p)
****
-Na 0
6-31g(d,p)
****
-O 0
6-31+g(d,p)
****


