%chk=lowest10_c2_a1_speciation3_speciation3_speciationDFT39_rank09_E237.31.chk
%nprocshared=20
%mem=40GB
#p opt=loose PM7/gen scf=xqc 

lowest10_c2_a1_speciation3_speciation3_speciationDFT39_rank09_E237.31 DFT input

0 1
Na      0.144300000000000     -0.275680000000000      0.201000000000000
C       2.491540000000000      0.254440000000000     -1.812520000000000
C       3.200170000000000     -1.356640000000000     -0.252700000000000
O       2.275780000000000     -0.331410000000000     -0.544890000000000
C       1.721490000000000     -0.481850000000000     -2.905390000000000
C       4.408890000000000     -0.784490000000000      0.476900000000000
H       2.106380000000000      1.293970000000000     -1.766730000000000
H       3.569980000000000      0.335730000000000     -2.067510000000000
H       2.695830000000000     -2.084210000000000      0.419970000000000
H       3.507680000000000     -1.932030000000000     -1.153780000000000
H       4.083690000000000     -0.261410000000000      1.401660000000000
H       5.101100000000000     -1.606580000000000      0.752410000000000
H       4.946220000000000     -0.065090000000000     -0.174230000000000
H       0.638960000000000     -0.512410000000000     -2.663640000000000
H       1.853100000000000      0.053120000000000     -3.869480000000000
H       2.096640000000000     -1.518890000000000     -3.020690000000000
C      -2.175750000000000     -0.647480000000000      2.364070000000000
C      -0.093760000000000     -0.491340000000000      3.425700000000000
O      -0.775410000000000     -0.740230000000000      2.218360000000000
C      -2.663530000000000      0.792090000000000      2.212740000000000
C       1.402600000000000     -0.459210000000000      3.130290000000000
H      -2.625950000000000     -1.239260000000000      1.538980000000000
H      -2.536630000000000     -1.106750000000000      3.310350000000000
H      -0.371150000000000      0.494030000000000      3.855540000000000
H      -0.291240000000000     -1.305260000000000      4.156070000000000
H       1.635600000000000      0.347260000000000      2.401960000000000
H       1.975010000000000     -0.272690000000000      4.062600000000000
H       1.726620000000000     -1.429510000000000      2.697740000000000
H      -2.308570000000000      1.219660000000000      1.252460000000000
H      -3.773530000000000      0.807960000000000      2.218570000000000
H      -2.299140000000000      1.424410000000000      3.046250000000000
C      -1.488450000000000     -2.763420000000000     -0.861020000000000
C      -2.314020000000000     -0.918060000000000     -2.060220000000000
O      -1.467960000000000     -1.359180000000000     -1.019830000000000
C      -0.393290000000000     -3.420810000000000     -1.694670000000000
C      -3.700300000000000     -0.587990000000000     -1.519240000000000
H      -1.285770000000000     -2.983230000000000      0.209110000000000
H      -2.483290000000000     -3.207900000000000     -1.086720000000000
H      -1.873080000000000      0.010120000000000     -2.479470000000000
H      -2.372630000000000     -1.639000000000000     -2.905770000000000
H      -3.626770000000000      0.169760000000000     -0.710730000000000
H      -4.329120000000000     -0.177730000000000     -2.336620000000000
H      -4.184990000000000     -1.500210000000000     -1.115350000000000
H       0.601050000000000     -3.013880000000000     -1.412130000000000
H      -0.394840000000000     -4.515700000000000     -1.509600000000000
H      -0.566190000000000     -3.241220000000000     -2.775650000000000
C      -1.038170000000000      2.699360000000000     -1.057880000000000
C       0.804610000000000      2.828810000000000      0.395330000000000
O      -0.109240000000000      1.981410000000000     -0.272630000000000
C      -0.517840000000000      2.887900000000000     -2.479150000000000
C       0.276770000000000      3.225420000000000      1.769730000000000
H      -1.969690000000000      2.097680000000000     -1.106050000000000
H      -1.324780000000000      3.673580000000000     -0.603990000000000
H       1.747080000000000      2.258630000000000      0.541020000000000
H       1.075540000000000      3.726820000000000     -0.202800000000000
H       0.067400000000000      2.320440000000000      2.373380000000000
H       1.039280000000000      3.835140000000000      2.298130000000000
H      -0.655340000000000      3.818350000000000      1.675480000000000
H      -0.284200000000000      1.904520000000000     -2.938470000000000
H      -1.293780000000000      3.391660000000000     -3.092650000000000
H       0.398800000000000      3.512190000000000     -2.478480000000000
Na     -3.806960000000000     12.220570000000000     16.973289999999999
C      -3.210420000000000     15.298159999999999     17.518599999999999
C      -5.429530000000000     14.826240000000000     18.123259999999998
O      -4.307640000000000     14.421180000000000     17.368179999999999
C      -2.332530000000000     14.879429999999999     18.693570000000001
C      -6.353630000000000     15.676410000000001     17.263380000000002
H      -2.601930000000000     15.231960000000001     16.592690000000001
H      -3.521540000000000     16.362430000000000     17.608950000000000
H      -5.976890000000000     13.910850000000000     18.436380000000000
H      -5.156750000000000     15.358630000000000     19.062419999999999
H      -6.654890000000000     15.108110000000000     16.357520000000001
H      -7.261650000000000     15.944410000000000     17.841819999999998
H      -5.835740000000000     16.606610000000000     16.951020000000000
H      -1.995270000000000     13.830100000000000     18.564609999999998
H      -1.440310000000000     15.538220000000001     18.740120000000001
H      -2.889330000000000     14.965610000000000     19.648949999999999
C      -4.427100000000000      9.130630000000000     16.179449999999999
C      -6.191450000000000     10.520289999999999     15.532200000000000
O      -5.050060000000000     10.385850000000000     16.348020000000002
C      -3.430240000000000      9.154820000000001     15.023300000000001
C      -6.697220000000000     11.953830000000000     15.645820000000001
H      -3.858170000000000      8.920980000000000     17.110080000000000
H      -5.159620000000000      8.300090000000001     16.068539999999999
H      -5.954410000000000     10.332649999999999     14.462680000000001
H      -6.996030000000000      9.835599999999999     15.877950000000000
H      -5.914050000000000     12.666850000000000     15.309500000000000
H      -7.599520000000000     12.090600000000000     15.014110000000001
H      -6.957370000000000     12.183980000000000     16.700839999999999
H      -2.696990000000000      9.975099999999999     15.166900000000000
H      -2.883410000000000      8.190280000000000     14.991650000000000
H      -3.948300000000000      9.297810000000000     14.053509999999999
C      -3.224620000000000     10.616080000000000     19.664639999999999
C      -1.115660000000000     10.875610000000000     18.669609999999999
O      -2.509660000000000     11.048560000000000     18.524529999999999
C      -3.441190000000000     11.774160000000000     20.631699999999999
C      -0.688960000000000      9.530400000000000     18.096900000000002
H      -4.218200000000000     10.254759999999999     19.323709999999998
H      -2.741510000000000      9.754080000000000     20.178380000000001
H      -0.613560000000000     11.680199999999999     18.092960000000001
H      -0.769100000000000     10.989990000000001     19.721920000000001
H      -1.000010000000000      9.454269999999999     17.033740000000002
H       0.414950000000000      9.433850000000000     18.156620000000000
H      -1.155700000000000      8.702669999999999     18.669609999999999
H      -3.977830000000000     12.601270000000000     20.120220000000000
H      -4.051150000000000     11.429720000000000     21.492979999999999
H      -2.468100000000000     12.150729999999999     21.009370000000001
C      -0.934740000000000     12.481740000000000     14.981809999999999
C      -2.888180000000000     13.474740000000001     14.145090000000000
O      -2.300420000000000     12.760130000000000     15.214610000000000
C      -0.057060000000000     13.592169999999999     15.547169999999999
C      -3.491150000000000     12.516769999999999     13.124870000000000
H      -0.688900000000000     11.536479999999999     15.509340000000000
H      -0.705250000000000     12.302530000000001     13.907109999999999
H      -3.706420000000000     14.098530000000000     14.563730000000000
H      -2.181000000000000     14.181690000000000     13.655250000000001
H      -4.232570000000000     11.856840000000000     13.617800000000001
H      -4.001850000000000     13.095820000000000     12.327389999999999
H      -2.700930000000000     11.889450000000000     12.664080000000000
H      -0.261010000000000     13.726089999999999     16.630040000000001
H       1.011720000000000     13.324230000000000     15.413530000000000
H      -0.255260000000000     14.548959999999999     15.021810000000000
Mg     -1.113460000000000      4.497150000000000      9.513150000000000
H       1.670720000000000      4.620830000000000     10.035530000000000
C       1.182580000000000      5.921140000000000      8.340970000000000
C       1.030230000000000      4.627340000000000      9.129280000000000
C       0.839870000000000      7.105410000000000      9.239680000000000
H       2.212060000000000      6.036070000000000      7.940400000000000
H       0.474880000000000      5.877750000000000      7.486300000000000
H      -0.112510000000000      6.907530000000000      9.750150000000000
H       1.621030000000000      7.217120000000000     10.020880000000000
C       0.694400000000000      8.395700000000000      8.442330000000000
H       1.307670000000000      3.768350000000000      8.479960000000000
H       1.640270000000000      8.636939999999999      7.916000000000000
H      -0.126140000000000      8.292780000000000      7.698060000000000
H       0.435830000000000      9.226580000000000      9.131990000000000
C      -3.953500000000000      6.239650000000000      5.393530000000000
C      -3.464730000000000      6.866050000000000      6.524850000000000
C      -2.563930000000000      5.990660000000000      7.097230000000000
C      -2.539580000000000      4.913380000000000      6.331270000000000
N      -3.414350000000000      5.081390000000000      5.244670000000000
C      -1.701620000000000      3.688130000000000      6.577350000000000
N      -2.266220000000000      2.908350000000000      7.694940000000000
C      -2.837670000000000      1.590130000000000      7.336460000000000
H      -3.732780000000000      7.851140000000000      6.890470000000000
H      -4.686430000000000      6.646160000000000      4.713120000000000
H      -1.977580000000000      6.145150000000000      7.979980000000000
H      -0.667140000000000      3.995390000000000      6.820620000000000
H      -1.610960000000000      3.104170000000000      5.645430000000000
C      -1.692690000000000      0.614590000000000      7.013220000000000
C      -3.622290000000000      1.033890000000000      8.540820000000000
C      -3.848810000000000      1.698680000000000      6.172110000000000
H      -1.001960000000000      0.541420000000000      7.882610000000000
H      -2.086840000000000     -0.398510000000000      6.792140000000000
H      -1.100130000000000      0.959310000000000      6.144180000000000
H      -4.433830000000000      1.728970000000000      8.830299999999999
H      -4.084740000000000      0.054520000000000      8.295520000000000
H      -2.979160000000000      0.858850000000000      9.416499999999999
H      -4.657700000000000      2.411470000000000      6.441080000000000
H      -3.393090000000000      2.038290000000000      5.225380000000000
H      -4.304510000000000      0.707350000000000      5.967450000000000
Mg     -4.102980000000000      4.128860000000000      9.001450000000000
H      -6.474110000000000      5.534820000000000      8.591490000000000
C      -7.067500000000000      3.430930000000000      8.401870000000001
C      -6.066250000000000      4.574690000000000      8.216240000000001
C      -7.536000000000000      3.274260000000000      9.852919999999999
H      -7.961310000000000      3.671970000000000      7.788220000000000
H      -6.642420000000000      2.475890000000000      8.021430000000001
H      -7.921870000000000      4.252280000000000     10.213340000000001
H      -8.368539999999999      2.539400000000000      9.880900000000000
C      -6.447520000000000      2.769810000000000     10.791499999999999
H      -5.874870000000000      4.682630000000000      7.126290000000000
H      -6.112430000000000      1.756360000000000     10.489340000000000
H      -5.586620000000000      3.453910000000000     10.786070000000000
H      -6.846710000000000      2.716050000000000     11.825900000000001
C       0.386160000000000      2.462740000000000     12.891520000000000
C       0.398260000000000      1.693940000000000     11.751239999999999
C      -0.792520000000000      1.919920000000000     11.091550000000000
C      -1.507400000000000      2.800520000000000     11.799379999999999
N      -0.812990000000000      3.186440000000000     12.963050000000001
C      -2.891090000000000      3.284200000000000     11.460089999999999
N      -2.876430000000000      4.520710000000000     10.656929999999999
C      -3.172500000000000      5.798140000000000     11.365100000000000
H       1.194300000000000      1.031080000000000     11.439700000000000
H       1.173250000000000      2.507790000000000     13.629270000000000
H      -1.075380000000000      1.451630000000000     10.165889999999999
H      -3.515600000000000      3.326780000000000     12.369160000000001
H      -3.372890000000000      2.505930000000000     10.846900000000000
C      -2.108020000000000      6.068530000000000     12.442890000000000
C      -3.163510000000000      6.963710000000000     10.361969999999999
C      -4.584670000000000      5.795640000000000     11.994249999999999
H      -1.092460000000000      6.073950000000000     11.989480000000000
H      -2.280040000000000      7.049610000000000     12.930350000000001
H      -2.145170000000000      5.296860000000000     13.235620000000001
H      -3.912930000000000      6.801260000000000      9.558809999999999
H      -3.402370000000000      7.923370000000000     10.870820000000000
H      -2.180190000000000      7.096990000000000      9.904900000000000
H      -5.354050000000000      5.654790000000000     11.206440000000001
H      -4.718960000000000      5.021760000000000     12.771450000000000
H      -4.786360000000000      6.771530000000000     12.486470000000001

-C 0
6-31g(d,p)
****
-H 0
6-31g(d,p)
****
-Mg 0
6-31g(d,p)
****
-N 0
6-31+g(d,p)
****
-Na 0
6-31g(d,p)
****
-O 0
6-31+g(d,p)
****


