%chk=lowest10_c2_a1_speciation3_speciation3_speciationDFT133_rank02_E239.38.chk
%nprocshared=20
%mem=40GB
#p opt=loose PM7/gen scf=xqc 

lowest10_c2_a1_speciation3_speciation3_speciationDFT133_rank02_E239.38 DFT input

0 1
Na      0.225230000000000     -0.050050000000000      0.284590000000000
C      -2.218000000000000      1.428400000000000      1.584320000000000
C      -0.688570000000000      0.883090000000000      3.285550000000000
O      -1.121860000000000      0.623470000000000      1.968050000000000
C      -1.753880000000000      2.742940000000000      0.963010000000000
C      -1.406040000000000     -0.034880000000000      4.266970000000000
H      -2.785270000000000      0.868990000000000      0.812100000000000
H      -2.928560000000000      1.608660000000000      2.419340000000000
H       0.400570000000000      0.664390000000000      3.331960000000000
H      -0.801010000000000      1.951130000000000      3.575760000000000
H      -1.235280000000000     -1.097270000000000      3.989980000000000
H      -1.016260000000000      0.137560000000000      5.291300000000000
H      -2.496210000000000      0.169270000000000      4.258040000000000
H      -1.085030000000000      2.548770000000000      0.099180000000000
H      -2.638330000000000      3.310440000000000      0.604300000000000
H      -1.213540000000000      3.361290000000000      1.708100000000000
C       2.599500000000000     -1.737870000000000     -1.023130000000000
C       1.902390000000000     -2.736940000000000      0.977920000000000
O       1.904890000000000     -1.567130000000000      0.192950000000000
C       1.699180000000000     -2.327360000000000     -2.107300000000000
C       1.001470000000000     -2.496820000000000      2.185630000000000
H       2.910190000000000     -0.726820000000000     -1.362310000000000
H       3.535160000000000     -2.325950000000000     -0.900040000000000
H       1.492230000000000     -3.605270000000000      0.418920000000000
H       2.928020000000000     -2.959010000000000      1.343250000000000
H      -0.035250000000000     -2.269750000000000      1.855850000000000
H       0.979450000000000     -3.396750000000000      2.834580000000000
H       1.379390000000000     -1.636240000000000      2.777600000000000
H       0.784350000000000     -1.710530000000000     -2.224300000000000
H       2.244700000000000     -2.337620000000000     -3.074040000000000
H       1.406130000000000     -3.367070000000000     -1.859100000000000
C       2.447560000000000      2.113370000000000     -0.317940000000000
C       0.957050000000000      2.229240000000000     -2.131760000000000
O       1.315360000000000      1.548780000000000     -0.947940000000000
C       2.032000000000000      3.163960000000000      0.706770000000000
C       1.636870000000000      1.595640000000000     -3.339970000000000
H       2.974480000000000      1.296510000000000      0.220270000000000
H       3.180590000000000      2.531110000000000     -1.043450000000000
H      -0.141090000000000      2.128270000000000     -2.256610000000000
H       1.161000000000000      3.321970000000000     -2.081740000000000
H       1.381830000000000      0.516590000000000     -3.402220000000000
H       1.289670000000000      2.098380000000000     -4.266550000000000
H       2.738280000000000      1.701930000000000     -3.263740000000000
H       1.351980000000000      2.715740000000000      1.462280000000000
H       2.934050000000000      3.551140000000000      1.225820000000000
H       1.515640000000000      4.010320000000000      0.209040000000000
C      -1.959870000000000     -0.447830000000000     -2.342850000000000
C      -2.348630000000000     -1.770900000000000     -0.439660000000000
O      -1.545340000000000     -0.769000000000000     -1.031400000000000
C      -2.976890000000000      0.688800000000000     -2.328910000000000
C      -1.787480000000000     -3.159730000000000     -0.724110000000000
H      -1.063880000000000     -0.105190000000000     -2.901260000000000
H      -2.350820000000000     -1.328050000000000     -2.899320000000000
H      -2.329240000000000     -1.611650000000000      0.659810000000000
H      -3.416660000000000     -1.702000000000000     -0.743360000000000
H      -0.742730000000000     -3.231460000000000     -0.362760000000000
H      -2.398480000000000     -3.919240000000000     -0.193970000000000
H      -1.807500000000000     -3.376330000000000     -1.811330000000000
H      -2.555020000000000      1.578260000000000     -1.815610000000000
H      -3.232550000000000      0.968300000000000     -3.372360000000000
H      -3.903110000000000      0.376100000000000     -1.805150000000000
Na     -6.105580000000000    -14.428120000000000     -4.944730000000000
C      -8.731730000000001    -14.957720000000000     -6.654590000000000
C      -9.229160000000000    -15.240370000000000     -4.377220000000000
O      -8.218010000000000    -15.201079999999999     -5.361360000000000
C      -8.804790000000001    -13.461560000000000     -6.942080000000000
C      -9.689520000000000    -16.675160000000002     -4.163440000000000
H      -8.029790000000000    -15.414569999999999     -7.382880000000000
H      -9.715809999999999    -15.447850000000001     -6.824180000000000
H      -8.793450000000000    -14.861490000000000     -3.427350000000000
H     -10.091089999999999    -14.574450000000001     -4.608130000000000
H      -8.822939999999999    -17.311869999999999     -3.884270000000000
H     -10.441820000000000    -16.709280000000000     -3.348720000000000
H     -10.145210000000001    -17.072559999999999     -5.093700000000000
H      -7.805470000000000    -12.997140000000000     -6.811220000000000
H      -9.137570000000000    -13.303620000000000     -7.989230000000000
H      -9.526020000000001    -12.966290000000001     -6.260400000000000
C      -3.346750000000000    -14.099710000000000     -3.271430000000000
C      -4.564890000000000    -15.942470000000000     -2.504690000000000
O      -4.607580000000000    -14.732870000000000     -3.227090000000000
C      -2.505190000000000    -14.618000000000000     -4.435350000000000
C      -5.909960000000000    -16.643280000000001     -2.659930000000000
H      -3.530440000000000    -13.018030000000000     -3.444560000000000
H      -2.797720000000000    -14.171200000000001     -2.306010000000000
H      -3.783910000000000    -16.628250000000001     -2.898240000000000
H      -4.396200000000000    -15.740589999999999     -1.424830000000000
H      -6.111140000000000    -16.859770000000001     -3.731190000000000
H      -5.908450000000000    -17.599930000000001     -2.097060000000000
H      -6.724240000000000    -15.996670000000000     -2.269520000000000
H      -3.064070000000000    -14.515210000000000     -5.388040000000000
H      -1.571270000000000    -14.026100000000000     -4.508140000000000
H      -2.233570000000000    -15.682330000000000     -4.287140000000000
C      -6.102040000000000    -11.363289999999999     -4.079790000000000
C      -5.253600000000000    -11.358010000000000     -6.267450000000000
O      -5.665140000000000    -12.147600000000001     -5.171510000000000
C      -7.607510000000000    -11.135850000000000     -4.152320000000000
C      -3.754640000000000    -11.096930000000000     -6.196210000000000
H      -5.878210000000000    -11.925950000000000     -3.148500000000000
H      -5.557080000000000    -10.395750000000000     -3.995420000000000
H      -5.468850000000000    -11.929080000000001     -7.194610000000000
H      -5.822140000000000    -10.404380000000000     -6.355600000000000
H      -3.202680000000000    -12.059580000000000     -6.157850000000000
H      -3.432360000000000    -10.533130000000000     -7.096070000000000
H      -3.509250000000000    -10.504130000000000     -5.291010000000000
H      -8.138850000000000    -12.111000000000001     -4.174740000000000
H      -7.940500000000000    -10.566850000000001     -3.259100000000000
H      -7.868870000000000    -10.558380000000000     -5.063110000000000
C      -4.541010000000000    -14.896179999999999     -8.039560000000000
C      -5.386770000000000    -16.815010000000001     -6.987800000000000
O      -5.232470000000000    -15.410920000000001     -6.919960000000000
C      -5.519200000000000    -14.504070000000000     -9.140599999999999
C      -4.219100000000000    -17.518500000000000     -6.306970000000000
H      -3.998790000000000    -13.985049999999999     -7.710750000000000
H      -3.764130000000000    -15.592810000000000     -8.427809999999999
H      -6.318070000000000    -17.079920000000001     -6.443380000000000
H      -5.521230000000000    -17.186669999999999     -8.028680000000000
H      -4.132910000000000    -17.177600000000002     -5.256040000000000
H      -4.390080000000000    -18.615220000000001     -6.314390000000000
H      -3.269250000000000    -17.298860000000001     -6.835870000000000
H      -6.257730000000000    -13.771970000000000     -8.752330000000001
H      -4.963390000000000    -14.041259999999999     -9.982500000000000
H      -6.059700000000000    -15.397300000000000     -9.515660000000000
Mg      2.759810000000000     -8.740610000000000     -0.970260000000000
C       5.729850000000000     -8.810589999999999     -0.258170000000000
C       5.825990000000000     -8.320000000000000     -2.557560000000000
O       5.020390000000000     -8.692340000000000     -1.468920000000000
C       5.615140000000000     -7.537610000000000      0.563540000000000
C       4.904410000000000     -7.803960000000000     -3.653850000000000
H       5.268110000000000     -9.638700000000000      0.317930000000000
H       6.787680000000000     -9.078270000000000     -0.399810000000000
H       6.547600000000000     -7.513780000000000     -2.297620000000000
H       6.358230000000000     -9.208010000000000     -2.944090000000000
H       4.382350000000000     -6.888280000000000     -3.307860000000000
H       5.484570000000000     -7.574000000000000     -4.570900000000000
H       4.133350000000000     -8.564920000000001     -3.894740000000000
H       4.546700000000000     -7.310050000000000      0.763780000000000
H       6.140670000000000     -7.678390000000000      1.532040000000000
H       6.079240000000000     -6.689520000000000      0.020090000000000
H       2.044400000000000     -6.119480000000000     -1.502190000000000
C       0.073440000000000     -7.012220000000000     -1.889530000000000
C       1.568140000000000     -6.904270000000000     -2.125800000000000
C      -0.246400000000000     -7.285480000000000     -0.414940000000000
H      -0.392180000000000     -6.058390000000000     -2.205920000000000
H      -0.325370000000000     -7.840100000000000     -2.514770000000000
H       0.192850000000000     -8.248980000000000     -0.098810000000000
H       0.177640000000000     -6.480890000000000      0.223700000000000
C      -1.752220000000000     -7.357300000000000     -0.196280000000000
H       1.812840000000000     -6.778630000000000     -3.198930000000000
H      -2.221800000000000     -6.398200000000000     -0.496890000000000
H      -2.189110000000000     -8.183610000000000     -0.797330000000000
H      -1.969140000000000     -7.543260000000000      0.876710000000000
C       1.843450000000000     -9.092720000000000      1.901300000000000
C       1.437060000000000    -10.071510000000000      2.781260000000000
C       1.510640000000000    -11.273750000000000      2.098770000000000
C       1.946320000000000    -10.971990000000000      0.825730000000000
N       2.136560000000000     -9.652889999999999      0.719110000000000
C       2.196130000000000    -11.945570000000000     -0.288720000000000
N       2.381710000000000    -11.261490000000000     -1.584120000000000
C       1.266340000000000    -11.411670000000001     -2.547620000000000
H       1.122490000000000     -9.920150000000000      3.803700000000000
H       1.915160000000000     -8.030770000000000      2.102690000000000
H       1.260720000000000    -12.252129999999999      2.482280000000000
H       3.113040000000000    -12.491890000000000     -0.042560000000000
H       1.398390000000000    -12.707039999999999     -0.316280000000000
C      -0.084350000000000    -11.033220000000000     -1.907870000000000
C       1.498450000000000    -10.450690000000000     -3.729410000000000
C       1.233530000000000    -12.850360000000000     -3.099130000000000
H      -0.030130000000000     -9.998419999999999     -1.524850000000000
H      -0.902770000000000    -11.094429999999999     -2.654710000000000
H      -0.358690000000000    -11.695520000000000     -1.065340000000000
H       2.429850000000000    -10.686260000000001     -4.262650000000000
H       0.671810000000000    -10.527920000000000     -4.469730000000000
H       1.561620000000000     -9.399900000000001     -3.384750000000000
H       2.206660000000000    -13.105390000000000     -3.569400000000000
H       1.032470000000000    -13.593769999999999     -2.304610000000000
H       0.441160000000000    -12.955019999999999     -3.866870000000000
Mg      4.935460000000000    -11.893450000000000     -2.290150000000000
C       5.384700000000000    -14.859320000000000     -3.047430000000000
C       3.475920000000000    -15.215579999999999     -1.673270000000000
O       4.399980000000000    -14.288950000000000     -2.208080000000000
C       4.830910000000000    -15.311859999999999     -4.394580000000000
C       4.112010000000000    -16.313549999999999     -0.822270000000000
H       6.134490000000000    -14.067320000000000     -3.228330000000000
H       5.959930000000000    -15.663600000000001     -2.552740000000000
H       2.824290000000000    -14.639600000000000     -0.986850000000000
H       2.808760000000000    -15.623350000000000     -2.459510000000000
H       4.781160000000000    -15.868180000000001     -0.056390000000000
H       3.310730000000000    -16.886040000000001     -0.313050000000000
H       4.681460000000000    -17.024699999999999     -1.452170000000000
H       4.301440000000000    -14.483969999999999     -4.901680000000000
H       5.672220000000000    -15.640610000000001     -5.039670000000000
H       4.131470000000000    -16.159780000000001     -4.264780000000000
H       4.036370000000000    -12.276520000000000     -4.819370000000000
C       6.093960000000000    -11.980480000000000     -5.397030000000000
C       4.882680000000000    -11.627290000000000     -4.525280000000000
C       5.752400000000000    -12.063350000000000     -6.895420000000000
H       6.900120000000000    -11.234480000000000     -5.251080000000000
H       6.474600000000000    -12.975680000000001     -5.105830000000000
H       6.675110000000000    -12.357060000000001     -7.441200000000000
H       4.989580000000000    -12.855729999999999     -7.061290000000000
C       5.243250000000000    -10.750069999999999     -7.487180000000000
H       4.597420000000000    -10.583629999999999     -4.743380000000000
H       4.279890000000000    -10.452019999999999     -7.024440000000000
H       5.992420000000000     -9.944300000000000     -7.340660000000000
H       5.070210000000000    -10.884110000000000     -8.576290000000000
C      10.023610000000000     -9.084199999999999     -1.242820000000000
C      10.905659999999999    -10.144390000000000     -1.337370000000000
C      10.173629999999999    -11.243840000000001     -1.744570000000000
C       8.927009999999999    -10.826050000000000     -1.861780000000000
N       8.839370000000001     -9.460990000000001     -1.557100000000000
C       7.761080000000000    -11.669100000000000     -2.253750000000000
N       6.725080000000000    -11.685650000000001     -1.218530000000000
C       6.989750000000000    -12.476060000000000      0.030040000000000
H      11.963670000000000    -10.121890000000000     -1.119280000000000
H      10.257970000000000     -8.073720000000000     -0.946760000000000
H      10.526550000000000    -12.249520000000000     -1.915670000000000
H       8.044240000000000    -12.694739999999999     -2.559810000000000
H       7.330980000000000    -11.196040000000000     -3.141890000000000
C       7.803130000000000    -11.624810000000000      1.025840000000000
C       5.664850000000000    -12.822419999999999      0.727870000000000
C       7.733290000000000    -13.806670000000000     -0.232880000000000
H       7.258670000000000    -10.691060000000000      1.274720000000000
H       7.968320000000000    -12.179150000000000      1.974350000000000
H       8.797639999999999    -11.357100000000001      0.632970000000000
H       5.055970000000000    -13.483180000000001      0.088550000000000
H       5.851590000000000    -13.374870000000000      1.677470000000000
H       5.091780000000000    -11.908180000000000      0.983370000000000
H       7.147050000000000    -14.457079999999999     -0.909580000000000
H       8.738070000000000    -13.637140000000000     -0.667520000000000
H       7.889260000000000    -14.360360000000000      0.718590000000000

-C 0
6-31g(d,p)
****
-H 0
6-31g(d,p)
****
-Mg 0
6-31g(d,p)
****
-N 0
6-31+g(d,p)
****
-Na 0
6-31g(d,p)
****
-O 0
6-31+g(d,p)
****


