%chk=lowest10_c2_a1_speciation0_speciation0_speciationDFT45_rank09_E145.12.chk
%nprocshared=20
%mem=40GB
#p opt=loose PM7/gen scf=xqc 

lowest10_c2_a1_speciation0_speciation0_speciationDFT45_rank09_E145.12 DFT input

0 1
Na     -1.584390000000000     -0.959080000000000     -0.916040000000000
C       1.417910000000000      0.638090000000000     -0.519430000000000
C       0.259790000000000      0.638690000000000      1.487660000000000
O       0.238650000000000      0.234670000000000      0.137910000000000
C       1.337410000000000      0.175820000000000     -1.969730000000000
C      -1.036870000000000      0.178700000000000      2.143200000000000
H       1.515550000000000      1.747540000000000     -0.516070000000000
H       2.313130000000000      0.165040000000000     -0.055860000000000
H       1.108110000000000      0.164310000000000      2.031210000000000
H       0.312870000000000      1.748020000000000      1.570390000000000
H      -1.123360000000000     -0.926480000000000      2.078490000000000
H      -1.056930000000000      0.477880000000000      3.212000000000000
H      -1.908160000000000      0.634960000000000      1.625890000000000
H       0.453710000000000      0.631910000000000     -2.465840000000000
H       2.252650000000000      0.476000000000000     -2.521660000000000
H       1.238750000000000     -0.930430000000000     -2.012090000000000
Na    -11.949550000000000    -11.719390000000001     -2.444050000000000
C      -8.492350000000000    -11.057410000000001     -2.444820000000000
C      -9.646979999999999     -9.057770000000000     -2.445340000000000
O      -9.769200000000000    -10.461620000000000     -2.445330000000000
C      -8.667780000000000    -12.569030000000000     -2.443520000000000
C     -11.044610000000000     -8.454760000000000     -2.442510000000000
H      -7.923010000000000    -10.777390000000000     -3.360130000000000
H      -7.925070000000000    -10.777590000000000     -1.528630000000000
H      -9.118040000000001     -8.704789999999999     -1.530820000000000
H      -9.121230000000001     -8.705060000000000     -3.361780000000000
H     -11.598290000000000     -8.785040000000000     -1.537450000000000
H     -10.982490000000000     -7.346480000000000     -2.442840000000000
H     -11.602060000000000     -8.785480000000000     -3.345040000000000
H      -9.232390000000001    -12.886070000000000     -3.346460000000000
H      -7.676250000000000    -13.068070000000001     -2.443710000000000
H      -9.230869999999999    -12.884219999999999     -1.538850000000000
Mg     -2.869670000000000     -7.169810000000000     -1.909290000000000
H      -3.508770000000000     -3.881730000000000     -1.886600000000000
C      -2.994340000000000     -4.695390000000000      0.092270000000000
C      -3.590620000000000     -4.819200000000000     -1.301960000000000
C      -1.512720000000000     -4.319950000000000      0.016830000000000
H      -3.558210000000000     -3.918680000000000      0.649520000000000
H      -3.102460000000000     -5.668720000000000      0.619220000000000
H      -0.954490000000000     -5.106500000000000     -0.530400000000000
H      -1.399890000000000     -3.360450000000000     -0.529420000000000
C      -0.910570000000000     -4.168460000000000      1.409520000000000
H      -4.643400000000000     -5.168970000000000     -1.253380000000000
H      -1.459190000000000     -3.389850000000000      1.979760000000000
H      -0.964260000000000     -5.130380000000000      1.962210000000000
H       0.154150000000000     -3.864650000000000      1.324120000000000
C      -0.904950000000000     -7.907500000000000      0.411720000000000
C       0.407540000000000     -8.286270000000000      0.635640000000000
C       1.001390000000000     -8.402150000000001     -0.605380000000000
C       0.024570000000000     -8.091839999999999     -1.523320000000000
N      -1.131350000000000     -7.794890000000000     -0.905320000000000
C       0.138880000000000     -8.060269999999999     -2.994010000000000
N      -0.533850000000000     -6.850970000000000     -3.484120000000000
C       0.297670000000000     -5.711100000000000     -3.875640000000000
H       0.878560000000000     -8.449360000000000      1.594220000000000
H      -1.645330000000000     -7.705890000000000      1.175370000000000
H       2.026700000000000     -8.684270000000000     -0.813810000000000
H      -0.449410000000000     -8.924890000000000     -3.330280000000000
H       1.171120000000000     -8.209099999999999     -3.373120000000000
C       0.888350000000000     -5.970140000000000     -5.272430000000000
C      -0.627280000000000     -4.484580000000000     -3.937210000000000
C       1.403890000000000     -5.428130000000000     -2.842810000000000
H       0.072970000000000     -6.139160000000000     -6.011620000000000
H       1.493560000000000     -5.102400000000000     -5.607900000000000
H       1.537060000000000     -6.869660000000000     -5.269980000000000
H      -1.089500000000000     -4.295790000000000     -2.945920000000000
H      -0.072340000000000     -3.577550000000000     -4.253550000000000
H      -1.450410000000000     -4.646080000000000     -4.653980000000000
H       0.955570000000000     -5.284880000000000     -1.838190000000000
H       2.132650000000000     -6.260660000000000     -2.784080000000000
H       1.959360000000000     -4.508230000000000     -3.116790000000000
Mg     -1.893630000000000     -8.316470000000001     -4.919810000000000
H      -1.673700000000000    -10.333489999999999     -6.864180000000000
C       0.361260000000000    -10.097370000000000     -6.061460000000000
C      -1.005340000000000     -9.539260000000001     -6.476480000000000
C       0.236910000000000    -11.265330000000001     -5.076780000000000
H       0.884800000000000    -10.467190000000000     -6.968820000000000
H       0.967660000000000     -9.275919999999999     -5.621950000000000
H      -0.293640000000000    -10.957170000000000     -4.162630000000000
H      -0.337920000000000    -12.084190000000000     -5.559830000000000
C       1.605780000000000    -11.796630000000000     -4.660920000000000
H      -0.835840000000000     -8.792899999999999     -7.282580000000000
H       2.180600000000000    -12.131990000000000     -5.549660000000000
H       2.179780000000000    -11.008680000000000     -4.127310000000000
H       1.473150000000000    -12.661260000000000     -3.976020000000000
C      -4.224420000000000     -7.793480000000000     -7.933970000000000
C      -3.389040000000000     -6.712050000000000     -7.771630000000000
C      -3.421690000000000     -6.368290000000000     -6.435890000000000
C      -4.230540000000000     -7.215850000000000     -5.798220000000000
N      -4.781490000000000     -8.155120000000000     -6.695130000000000
C      -4.476500000000000     -7.209820000000000     -4.312070000000000
N      -3.556930000000000     -8.151199999999999     -3.639830000000000
C      -4.140200000000000     -9.410629999999999     -3.136850000000000
H      -2.808710000000000     -6.231810000000000     -8.548760000000000
H      -4.417090000000000     -8.300549999999999     -8.868790000000001
H      -2.861220000000000     -5.571320000000000     -5.983550000000000
H      -5.551600000000000     -7.361140000000000     -4.087640000000000
H      -4.233280000000000     -6.192740000000000     -3.937410000000000
C      -4.857100000000000    -10.194279999999999     -4.248380000000000
C      -2.994000000000000    -10.272380000000000     -2.596720000000000
C      -5.108570000000000     -9.120430000000001     -1.963790000000000
H      -4.155030000000000    -10.400069999999999     -5.084490000000000
H      -5.230950000000000    -11.162150000000000     -3.851400000000000
H      -5.730770000000000     -9.634570000000000     -4.638560000000000
H      -2.444100000000000     -9.743900000000000     -1.795240000000000
H      -3.372890000000000    -11.226010000000000     -2.174470000000000
H      -2.290350000000000    -10.505780000000000     -3.413790000000000
H      -4.586710000000000     -8.586309999999999     -1.140730000000000
H      -5.973770000000000     -8.500629999999999     -2.270390000000000
H      -5.505830000000000    -10.067340000000000     -1.544610000000000

-C 0
6-31g(d,p)
****
-H 0
6-31g(d,p)
****
-Mg 0
6-31g(d,p)
****
-N 0
6-31+g(d,p)
****
-Na 0
6-31g(d,p)
****
-O 0
6-31+g(d,p)
****


