%chk=lowest10_c2_a1_speciation3_speciation3_speciationDFT133_rank09_E239.79.chk
%nprocshared=20
%mem=40GB
#p opt=loose PM7/gen scf=xqc 

lowest10_c2_a1_speciation3_speciation3_speciationDFT133_rank09_E239.79 DFT input

0 1
Na      0.225190000000000     -0.050070000000000      0.284540000000000
C      -2.218000000000000      1.428390000000000      1.584330000000000
C      -0.688580000000000      0.883040000000000      3.285560000000000
O      -1.121880000000000      0.623450000000000      1.968050000000000
C      -1.753880000000000      2.742930000000000      0.963020000000000
C      -1.406050000000000     -0.034940000000000      4.266970000000000
H      -2.785290000000000      0.869010000000000      0.812110000000000
H      -2.928570000000000      1.608650000000000      2.419350000000000
H       0.400560000000000      0.664350000000000      3.331960000000000
H      -0.801020000000000      1.951090000000000      3.575780000000000
H      -1.235290000000000     -1.097330000000000      3.989970000000000
H      -1.016270000000000      0.137500000000000      5.291290000000000
H      -2.496220000000000      0.169220000000000      4.258040000000000
H      -1.085030000000000      2.548760000000000      0.099190000000000
H      -2.638330000000000      3.310430000000000      0.604310000000000
H      -1.213540000000000      3.361280000000000      1.708100000000000
C       2.599790000000000     -1.737470000000000     -1.022810000000000
C       1.902590000000000     -2.736940000000000      0.978190000000000
O       1.904990000000000     -1.567050000000000      0.193260000000000
C       1.699670000000000     -2.326610000000000     -2.107230000000000
C       1.001460000000000     -2.497180000000000      2.185840000000000
H       2.910490000000000     -0.726390000000000     -1.361830000000000
H       3.535350000000000     -2.325730000000000     -0.899840000000000
H       1.492690000000000     -3.605290000000000      0.419160000000000
H       2.928200000000000     -2.958940000000000      1.343550000000000
H      -0.035240000000000     -2.270070000000000      1.855990000000000
H       0.979380000000000     -3.397320000000000      2.834570000000000
H       1.379240000000000     -1.636620000000000      2.777950000000000
H       0.784700000000000     -1.709950000000000     -2.224200000000000
H       2.245200000000000     -2.336800000000000     -3.073980000000000
H       1.406990000000000     -3.366380000000000     -1.859060000000000
C       2.447550000000000      2.113380000000000     -0.317930000000000
C       0.957050000000000      2.229250000000000     -2.131760000000000
O       1.315360000000000      1.548800000000000     -0.947940000000000
C       2.031990000000000      3.163970000000000      0.706770000000000
C       1.636860000000000      1.595660000000000     -3.339970000000000
H       2.974470000000000      1.296530000000000      0.220280000000000
H       3.180580000000000      2.531120000000000     -1.043450000000000
H      -0.141090000000000      2.128280000000000     -2.256610000000000
H       1.160990000000000      3.321980000000000     -2.081740000000000
H       1.381820000000000      0.516610000000000     -3.402230000000000
H       1.289670000000000      2.098400000000000     -4.266550000000000
H       2.738270000000000      1.701940000000000     -3.263740000000000
H       1.351980000000000      2.715750000000000      1.462280000000000
H       2.934050000000000      3.551140000000000      1.225820000000000
H       1.515640000000000      4.010320000000000      0.209050000000000
C      -1.960020000000000     -0.447730000000000     -2.342800000000000
C      -2.349270000000000     -1.770290000000000     -0.439370000000000
O      -1.545660000000000     -0.768760000000000     -1.031280000000000
C      -2.976990000000000      0.688890000000000     -2.328960000000000
C      -1.788440000000000     -3.159070000000000     -0.723490000000000
H      -1.063960000000000     -0.105160000000000     -2.901150000000000
H      -2.350920000000000     -1.328000000000000     -2.899230000000000
H      -2.329690000000000     -1.611040000000000      0.660080000000000
H      -3.417240000000000     -1.701430000000000     -0.743170000000000
H      -0.743560000000000     -3.230250000000000     -0.362330000000000
H      -2.399280000000000     -3.918330000000000     -0.192740000000000
H      -1.808820000000000     -3.375890000000000     -1.810710000000000
H      -2.555090000000000      1.578330000000000     -1.815640000000000
H      -3.232590000000000      0.968350000000000     -3.372420000000000
H      -3.903210000000000      0.376200000000000     -1.805210000000000
Na      9.786080000000000    -15.554890000000000     -1.996010000000000
C      12.833190000000000    -16.425010000000000     -1.753610000000000
C      12.132849999999999    -16.695470000000000     -3.978500000000000
O      11.734900000000000    -16.571610000000000     -2.629870000000000
C      13.203340000000001    -14.955450000000001     -1.580760000000000
C      12.268370000000001    -18.166029999999999     -4.346410000000000
H      12.524430000000001    -16.821190000000001     -0.763890000000000
H      13.714620000000000    -17.027110000000000     -2.066560000000000
H      11.337999999999999    -16.242730000000002     -4.610060000000000
H      13.067500000000001    -16.137390000000000     -4.212300000000000
H      11.309630000000000    -18.693180000000002     -4.153430000000000
H      12.524020000000000    -18.260649999999998     -5.421840000000000
H      13.069020000000000    -18.638839999999998     -3.741110000000000
H      12.324510000000000    -14.378290000000000     -1.225820000000000
H      14.016030000000001    -14.866260000000000     -0.829910000000000
H      13.555669999999999    -14.524620000000001     -2.540140000000000
C       6.618880000000000    -14.870780000000000     -2.136450000000000
C       7.099380000000000    -16.815490000000000     -3.342580000000000
O       7.621190000000000    -15.639770000000000     -2.766190000000000
C       6.392520000000000    -15.324970000000000     -0.696300000000000
C       8.263690000000000    -17.666920000000001     -3.836410000000000
H       6.983330000000000    -13.821999999999999     -2.105100000000000
H       5.667610000000000    -14.852209999999999     -2.713800000000000
H       6.534550000000000    -17.420490000000001     -2.600910000000000
H       6.453700000000000    -16.564730000000001     -4.211790000000000
H       8.931780000000000    -17.935580000000002     -2.990010000000000
H       7.883090000000000    -18.600639999999999     -4.300450000000000
H       8.854550000000000    -17.104649999999999     -4.590280000000000
H       7.349700000000000    -15.313170000000000     -0.135760000000000
H       5.683180000000000    -14.634430000000000     -0.198460000000000
H       5.965700000000000    -16.347370000000002     -0.663850000000000
C       9.708720000000000    -12.485210000000000     -2.840020000000000
C      10.029830000000000    -12.448270000000001     -0.515950000000000
O       9.769000000000000    -13.246910000000000     -1.650880000000000
C      11.076430000000000    -12.430220000000000     -3.510670000000000
C       8.723170000000000    -12.018800000000001      0.138520000000000
H       9.001230000000000    -12.991970000000000     -3.530400000000000
H       9.303269999999999    -11.460620000000000     -2.678550000000000
H      10.600740000000000    -13.066530000000000      0.207860000000000
H      10.673010000000000    -11.567370000000000     -0.741230000000000
H       8.117440000000000    -12.911960000000001      0.399620000000000
H       8.941430000000000    -11.448750000000000      1.065290000000000
H       8.139150000000001    -11.376220000000000     -0.552140000000000
H      11.439260000000001    -13.459040000000000     -3.719540000000000
H      10.997710000000000    -11.876480000000001     -4.469660000000000
H      11.808249999999999    -11.912360000000000     -2.856790000000000
C       9.870710000000001    -15.934110000000000      1.481630000000000
C       9.881610000000000    -17.904350000000001      0.208280000000000
O       9.872310000000001    -16.490449999999999      0.182760000000000
C      11.296099999999999    -15.686270000000000      1.960950000000000
C       8.459860000000001    -18.452420000000000      0.197240000000000
H       9.343200000000000    -14.958769999999999      1.429520000000000
H       9.305669999999999    -16.550190000000001      2.216990000000000
H      10.397440000000000    -18.256119999999999     -0.710460000000000
H      10.459700000000000    -18.318780000000000      1.064850000000000
H       7.915400000000000    -18.073670000000000     -0.690560000000000
H       8.488920000000000    -19.561150000000001      0.152910000000000
H       7.915360000000000    -18.143090000000001      1.112680000000000
H      11.831799999999999    -15.030650000000000      1.243090000000000
H      11.272259999999999    -15.188670000000000      2.952780000000000
H      11.846480000000000    -16.644980000000000      2.053840000000000
Mg      0.805060000000000     -8.796620000000001     -1.354450000000000
C      -2.124870000000000     -8.511960000000000     -0.540370000000000
C      -1.042410000000000     -8.079160000000000      1.503800000000000
O      -0.910600000000000     -8.508369999999999      0.172940000000000
C      -2.279790000000000     -7.236860000000000     -1.351750000000000
C       0.345360000000000     -7.701230000000000      2.002680000000000
H      -2.094970000000000     -9.369680000000001     -1.243390000000000
H      -3.004940000000000     -8.663240000000000      0.102540000000000
H      -1.704290000000000     -7.189940000000000      1.601330000000000
H      -1.417150000000000     -8.912770000000000      2.125170000000000
H       0.733930000000000     -6.839890000000000      1.421270000000000
H       0.310540000000000     -7.434600000000000      3.078830000000000
H       1.045910000000000     -8.550689999999999      1.863050000000000
H      -1.423200000000000     -7.123640000000000     -2.049440000000000
H      -3.219960000000000     -7.289000000000000     -1.941020000000000
H      -2.325120000000000     -6.360210000000000     -0.675390000000000
H       1.977240000000000     -6.289230000000000     -1.308920000000000
C       3.775130000000000     -7.410100000000000     -1.896960000000000
C       2.603750000000000     -7.140670000000000     -0.970760000000000
C       3.310100000000000     -7.674700000000000     -3.334310000000000
H       4.439700000000000     -6.524570000000000     -1.872630000000000
H       4.330880000000000     -8.295010000000000     -1.518510000000000
H       2.668770000000000     -8.573689999999999     -3.371310000000000
H       2.722340000000000     -6.810340000000000     -3.711410000000000
C       4.504210000000000     -7.905820000000000     -4.251900000000000
H       2.924400000000000     -7.018620000000000      0.082580000000000
H       5.162420000000000     -7.011870000000000     -4.244800000000000
H       5.083200000000000     -8.791940000000000     -3.913400000000000
H       4.153060000000000     -8.084899999999999     -5.290030000000000
C       0.173790000000000     -9.165649999999999     -4.299620000000000
C      -0.008180000000000    -10.157880000000000     -5.237600000000000
C       0.123040000000000    -11.363569999999999     -4.570010000000000
C       0.393690000000000    -11.051900000000000     -3.254290000000000
N       0.427740000000000     -9.723470000000001     -3.107330000000000
C       0.606290000000000    -12.023160000000001     -2.130160000000000
N       1.147890000000000    -11.360390000000001     -0.926880000000000
C       2.565100000000000    -11.662610000000001     -0.618410000000000
H      -0.212100000000000    -10.013120000000001     -6.288660000000000
H       0.133200000000000     -8.096990000000000     -4.471940000000000
H       0.045140000000000    -12.352250000000000     -4.998000000000000
H      -0.370050000000000    -12.455830000000001     -1.886560000000000
H       1.226880000000000    -12.869740000000000     -2.469480000000000
C       3.471170000000000    -11.419750000000001     -1.841870000000000
C       3.042430000000000    -10.716320000000000      0.499940000000000
C       2.698760000000000    -13.111269999999999     -0.109960000000000
H       3.355050000000000    -10.374810000000000     -2.180800000000000
H       4.535830000000000    -11.593920000000001     -1.582120000000000
H       3.227920000000000    -12.083860000000000     -2.692480000000000
H       2.465000000000000    -10.861290000000000      1.423470000000000
H       4.109280000000000    -10.907159999999999      0.750480000000000
H       2.938820000000000     -9.655540000000000      0.198450000000000
H       2.052490000000000    -13.269069999999999      0.779190000000000
H       2.406030000000000    -13.849159999999999     -0.880780000000000
H       3.746040000000000    -13.326320000000001      0.181920000000000
Mg     -0.799100000000000    -11.722110000000001      0.943320000000000
C      -1.155810000000000    -14.639609999999999      1.909080000000000
C      -0.202480000000000    -15.167669999999999     -0.205400000000000
O      -0.642460000000000    -14.159170000000000      0.682230000000000
C      -0.074700000000000    -15.190289999999999      2.833340000000000
C      -1.289160000000000    -16.162240000000001     -0.610780000000000
H      -1.630590000000000    -13.774110000000000      2.406720000000000
H      -1.984510000000000    -15.359629999999999      1.777540000000000
H       0.096170000000000    -14.648740000000000     -1.137630000000000
H       0.711010000000000    -15.670320000000000      0.171980000000000
H      -2.190330000000000    -15.622620000000000     -0.970480000000000
H      -0.903710000000000    -16.805959999999999     -1.426960000000000
H      -1.558940000000000    -16.823010000000000      0.236200000000000
H       0.722920000000000    -14.442050000000000      2.997170000000000
H      -0.530300000000000    -15.441200000000000      3.813890000000000
H       0.374800000000000    -16.107170000000000      2.406350000000000
H       1.160840000000000    -12.276690000000000      2.733010000000000
C      -0.313340000000000    -11.768710000000000      4.224200000000000
C       0.356700000000000    -11.528370000000001      2.865820000000000
C       0.698030000000000    -11.932810000000000      5.372640000000000
H      -1.000200000000000    -10.933120000000001      4.464450000000000
H      -0.896150000000000    -12.706090000000000      4.182200000000000
H       0.127680000000000    -12.136920000000000      6.304620000000000
H       1.351660000000000    -12.810210000000000      5.172120000000000
C       1.573340000000000    -10.702629999999999      5.606300000000000
H       0.826750000000000    -10.529980000000000      2.888450000000000
H       2.219600000000000    -10.501200000000001      4.727200000000000
H       0.942410000000000     -9.814030000000001      5.816760000000000
H       2.234860000000000    -10.886780000000000      6.479530000000000
C      -5.407960000000000     -8.330650000000000      2.404210000000000
C      -6.247050000000000     -9.287530000000000      2.943970000000000
C      -5.537960000000000    -10.473490000000000      2.978410000000000
C      -4.352070000000000    -10.201720000000000      2.466420000000000
N      -4.270130000000000     -8.846819999999999      2.117840000000000
C      -3.244860000000000    -11.181210000000000      2.270430000000000
N      -2.847510000000000    -11.283870000000000      0.864440000000000
C      -3.769340000000000    -12.003100000000000     -0.077190000000000
H      -7.268560000000000     -9.140250000000000      3.263770000000000
H      -5.641200000000000     -7.292090000000000      2.229100000000000
H      -5.874500000000000    -11.437790000000000      3.327860000000000
H      -3.457850000000000    -12.177070000000001      2.704850000000000
H      -2.389140000000000    -10.785250000000000      2.825900000000000
C      -4.861340000000000    -11.037480000000000     -0.580140000000000
C      -2.995070000000000    -12.475479999999999     -1.318010000000000
C      -4.437080000000000    -13.249000000000001      0.550790000000000
H      -4.404150000000000    -10.163850000000000     -1.088100000000000
H      -5.525310000000000    -11.542050000000000     -1.314180000000000
H      -5.504960000000000    -10.671460000000000      0.236460000000000
H      -2.231540000000000    -13.218629999999999     -1.033680000000000
H      -3.678060000000000    -12.975740000000000     -2.042630000000000
H      -2.518420000000000    -11.624260000000000     -1.845040000000000
H      -3.674000000000000    -13.980409999999999      0.878450000000000
H      -5.080450000000000    -12.980549999999999      1.411750000000000
H      -5.094410000000000    -13.753890000000000     -0.190310000000000

-C 0
6-31g(d,p)
****
-H 0
6-31g(d,p)
****
-Mg 0
6-31g(d,p)
****
-N 0
6-31+g(d,p)
****
-Na 0
6-31g(d,p)
****
-O 0
6-31+g(d,p)
****


