%chk=lowest10_c2_a1_speciation0_speciation0_speciationDFT66b_rank09_E163.89.chk
%nprocshared=20
%mem=40GB
#p opt=loose PM7/gen scf=xqc 

lowest10_c2_a1_speciation0_speciation0_speciationDFT66b_rank09_E163.89 DFT input

0 1
Na     -0.001060000000000      2.190250000000000      0.000610000000000
C       0.578920000000000     -1.041870000000000      1.003610000000000
C      -0.579810000000000     -1.042660000000000     -1.002420000000000
O      -0.000090000000000     -0.239940000000000      0.000200000000000
C       1.188480000000000     -0.123470000000000      2.055950000000000
C      -1.186000000000000     -0.123820000000000     -2.056760000000000
H      -0.190990000000000     -1.674250000000000      1.501310000000000
H       1.394580000000000     -1.672730000000000      0.585080000000000
H       0.189320000000000     -1.677270000000000     -1.498550000000000
H      -1.396650000000000     -1.673330000000000     -0.583830000000000
H      -0.396670000000000      0.522370000000000     -2.497790000000000
H      -1.654330000000000     -0.721350000000000     -2.866580000000000
H      -1.961120000000000      0.525460000000000     -1.595450000000000
H       0.401470000000000      0.525690000000000      2.496740000000000
H       1.655720000000000     -0.721670000000000      2.865950000000000
H       1.965210000000000      0.522570000000000      1.592870000000000
Na     -5.072720000000000    -14.322760000000001      6.863200000000000
C      -1.997680000000000    -12.658130000000000      6.419020000000000
C      -3.153380000000000    -12.658659999999999      4.418520000000000
O      -3.181190000000000    -13.060650000000001      5.769050000000000
C      -2.070210000000000    -13.109999999999999      7.870870000000000
C      -4.447750000000000    -13.113120000000000      3.759720000000000
H      -1.106540000000000    -13.137320000000001      5.953510000000000
H      -1.896430000000000    -11.549020000000001      6.408720000000000
H      -3.094740000000000    -11.549510000000000      4.334560000000000
H      -2.304640000000000    -13.136550000000000      3.877950000000000
H      -5.317380000000000    -12.651070000000001      4.274200000000000
H      -4.461430000000000    -12.812840000000000      2.692870000000000
H      -4.537440000000000    -14.218660000000000      3.823090000000000
H      -2.170140000000000    -14.215600000000000      7.919480000000000
H      -1.149330000000000    -12.806990000000001      8.411580000000001
H      -2.949630000000000    -12.647740000000001      8.368570000000000
Mg      1.977540000000000     -8.755020000000000     -0.902490000000000
C      -0.174450000000000     -7.385370000000000     -1.895000000000000
C      -2.188830000000000     -6.553170000000000     -1.059890000000000
O      -0.842720000000000     -6.855380000000000     -0.766430000000000
C       0.186020000000000     -6.341750000000000     -2.927560000000000
C      -3.011300000000000     -6.641260000000000      0.220400000000000
H      -1.037170000000000     -9.230079999999999     -0.392360000000000
H      -0.674490000000000     -8.271250000000000     -2.341930000000000
H      -2.248230000000000     -5.516680000000000     -1.452350000000000
H      -2.643080000000000     -7.260990000000000     -1.789120000000000
H      -2.603520000000000     -5.951600000000000      0.989740000000000
H      -4.064090000000000     -6.360960000000000      0.006680000000000
H      -2.996500000000000     -7.675970000000000      0.623050000000000
H       0.716650000000000     -5.503320000000000     -2.442270000000000
H       0.848720000000000     -6.812250000000000     -3.682890000000000
H      -0.732090000000000     -5.967970000000000     -3.420450000000000
H       2.814630000000000    -10.418250000000000     -2.876320000000000
C       4.583330000000000     -9.155690000000000     -2.797500000000000
C       3.058530000000000     -9.347130000000000     -2.734760000000000
C       5.324790000000000     -9.877750000000001     -1.666490000000000
H       4.944480000000000     -9.546310000000000     -3.774230000000000
H       4.814010000000000     -8.078670000000001     -2.766020000000000
H       4.975520000000000     -9.491320000000000     -0.688220000000000
H       5.117050000000000    -10.964740000000001     -1.725880000000000
C       6.840320000000000     -9.689510000000000     -1.759210000000000
H       2.602750000000000     -8.769170000000001     -3.566630000000000
H       7.223130000000000    -10.095810000000000     -2.719530000000000
H       7.116290000000000     -8.617550000000000     -1.682050000000000
H       7.334130000000000    -10.236480000000000     -0.927390000000000
C       2.481300000000000    -11.432020000000000      0.179030000000000
C       2.096880000000000    -12.507070000000001      0.938810000000000
C       0.878780000000000    -12.181559999999999      1.483230000000000
C       0.561840000000000    -10.921279999999999      1.021780000000000
N       1.562680000000000    -10.460140000000001      0.222120000000000
C      -0.726730000000000    -10.227169999999999      1.360430000000000
N      -1.546240000000000     -9.924320000000000      0.178150000000000
C      -2.036770000000000    -11.023860000000001     -0.693790000000000
H       2.648090000000000    -13.423819999999999      1.072070000000000
H       3.389500000000000    -11.363040000000000     -0.389040000000000
H       0.277700000000000    -12.802260000000000      2.133270000000000
H      -1.321830000000000    -10.836860000000000      2.073060000000000
H      -0.510180000000000     -9.282740000000000      1.897850000000000
C      -2.656770000000000    -12.165580000000000      0.133440000000000
C      -3.133570000000000    -10.435570000000000     -1.603100000000000
C      -0.921720000000000    -11.576760000000000     -1.614000000000000
H      -3.468910000000000    -11.769539999999999      0.778250000000000
H      -3.079440000000000    -12.946899999999999     -0.533480000000000
H      -1.897140000000000    -12.655139999999999      0.775790000000000
H      -2.724940000000000     -9.616400000000001     -2.230710000000000
H      -3.541680000000000    -11.213160000000000     -2.285200000000000
H      -3.969450000000000    -10.025490000000000     -0.997050000000000
H      -0.446980000000000    -10.754659999999999     -2.192310000000000
H      -0.137510000000000    -12.115690000000001     -1.058980000000000
H      -1.339120000000000    -12.311290000000000     -2.333580000000000
Mg      4.983170000000000     -7.466160000000000      0.529470000000000
H       6.848780000000000     -9.158149999999999      1.385210000000000
C       5.535620000000000     -9.038060000000000      3.097850000000000
C       6.305530000000000     -8.386670000000001      1.970820000000000
C       4.448680000000000     -9.940860000000001      2.522620000000000
H       6.235070000000000     -9.621070000000000      3.734750000000000
H       5.074140000000000     -8.246490000000000      3.720570000000000
H       3.796440000000000     -9.345250000000000      1.853940000000000
H       4.904070000000000    -10.754220000000000      1.917420000000000
C       3.605610000000000    -10.536400000000000      3.642100000000000
H       7.045100000000000     -7.660330000000000      2.369450000000000
H       4.239400000000000    -11.162640000000000      4.303300000000000
H       3.132420000000000     -9.726839999999999      4.238080000000000
H       2.803620000000000    -11.166610000000000      3.216920000000000
C       6.286610000000000     -3.857600000000000      0.028900000000000
C       6.874350000000000     -4.830880000000000     -0.746350000000000
C       5.862330000000000     -5.618350000000000     -1.251430000000000
C       4.698870000000000     -5.156260000000000     -0.785370000000000
N       4.893270000000000     -4.021850000000000      0.025240000000000
C       3.368750000000000     -5.817980000000000     -0.992420000000000
N       3.063630000000000     -6.679070000000000      0.161590000000000
C       2.340810000000000     -6.132480000000000      1.337800000000000
H       7.935560000000000     -4.966630000000000     -0.903500000000000
H       6.810500000000000     -3.090190000000000      0.577910000000000
H       6.005460000000000     -6.495810000000000     -1.859180000000000
H       3.456930000000000     -6.498830000000000     -1.862360000000000
H       2.580780000000000     -5.099750000000000     -1.274860000000000
C       1.449810000000000     -4.915750000000000      0.998200000000000
C       1.418570000000000     -7.241230000000000      1.875080000000000
C       3.335090000000000     -5.755270000000000      2.438550000000000
H       0.723010000000000     -5.169470000000000      0.200490000000000
H       0.872640000000000     -4.591810000000000      1.890510000000000
H       2.061280000000000     -4.054010000000000      0.664390000000000
H       1.982900000000000     -8.153300000000000      2.140300000000000
H       0.871540000000000     -6.907610000000000      2.783450000000000
H       0.674920000000000     -7.519640000000000      1.104760000000000
H       3.924450000000000     -6.641080000000000      2.729990000000000
H       4.032530000000000     -4.970910000000000      2.103840000000000
H       2.799700000000000     -5.380700000000000      3.336590000000000

-C 0
6-31g(d,p)
****
-H 0
6-31g(d,p)
****
-Mg 0
6-31g(d,p)
****
-N 0
6-31+g(d,p)
****
-Na 0
6-31g(d,p)
****
-O 0
6-31+g(d,p)
****


