%chk=lowest10_c2_a1_speciation0_speciation0_speciationDFT133_rank05_E170.60.chk
%nprocshared=20
%mem=40GB
#p opt=loose PM7/gen scf=xqc 

lowest10_c2_a1_speciation0_speciation0_speciationDFT133_rank05_E170.60 DFT input

0 1
Na      0.001160000000000      2.183790000000000      0.000730000000000
C       0.581130000000000     -1.041700000000000     -1.002260000000000
C      -0.577870000000000     -1.042420000000000      1.004240000000000
O      -0.002490000000000     -0.240180000000000     -0.001190000000000
C       1.185910000000000     -0.122380000000000     -2.057040000000000
C      -1.188110000000000     -0.123040000000000      2.055930000000000
H       1.400330000000000     -1.667010000000000     -0.582010000000000
H      -0.185300000000000     -1.679680000000000     -1.498200000000000
H      -1.391460000000000     -1.678840000000000      0.587940000000000
H       0.194800000000000     -1.670520000000000      1.502610000000000
H      -1.965140000000000      0.522640000000000      1.592790000000000
H      -1.654900000000000     -0.720000000000000      2.867070000000000
H      -0.401300000000000      0.526940000000000      2.495970000000000
H       1.959930000000000      0.528330000000000     -1.595910000000000
H       1.655690000000000     -0.719550000000000     -2.866350000000000
H       0.395860000000000      0.522320000000000     -2.498910000000000
Na      9.521520000000001    -14.988479999999999     -1.742040000000000
C       6.355630000000000    -13.825979999999999     -2.742200000000000
C       6.935250000000000    -12.828490000000000     -0.741700000000000
O       7.347630000000000    -13.726279999999999     -1.746130000000000
C       6.837430000000000    -14.807570000000000     -3.800990000000000
C       8.029330000000000    -12.750320000000000      0.312970000000000
H       5.402970000000000    -14.217540000000000     -2.317920000000000
H       6.188100000000000    -12.841510000000000     -3.235510000000000
H       6.783880000000000    -11.806760000000001     -1.159130000000000
H       6.009180000000000    -13.191830000000000     -0.243730000000000
H       8.975630000000001    -12.394040000000000     -0.147390000000000
H       7.732360000000000    -12.047100000000000      1.118980000000000
H       8.200570000000001    -13.755060000000000      0.755630000000000
H       7.011780000000000    -15.804550000000001     -3.342240000000000
H       6.077310000000000    -14.907610000000000     -4.603680000000000
H       7.788900000000000    -14.446669999999999     -4.247320000000000
Mg      1.088550000000000    -10.389139999999999     -3.270900000000000
C       2.895140000000000     -8.291639999999999     -2.053620000000000
C       3.437470000000000    -10.183770000000001     -0.756630000000000
O       2.592630000000000     -9.627120000000000     -1.728630000000000
C       3.761830000000000     -8.219630000000000     -3.298600000000000
C       3.278550000000000    -11.696240000000000     -0.828640000000000
H       1.936020000000000     -7.775390000000000     -2.266960000000000
H       3.368850000000000     -7.743510000000000     -1.229330000000000
H       4.507490000000000     -9.932399999999999     -0.927440000000000
H       3.112650000000000     -9.853140000000000      0.245570000000000
H       3.638460000000000    -12.068740000000000     -1.809720000000000
H       3.850400000000000    -12.182610000000000     -0.013770000000000
H       2.208890000000000    -11.975199999999999     -0.730780000000000
H       3.242280000000000     -8.705600000000000     -4.151430000000000
H       3.950310000000000     -7.154480000000000     -3.551430000000000
H       4.731300000000000     -8.726350000000000     -3.116650000000000
H       2.641820000000000    -12.158370000000000     -4.668760000000000
C       0.721660000000000    -13.151100000000000     -5.085090000000000
C       1.763410000000000    -12.583810000000000     -4.140730000000000
C       0.239100000000000    -12.102020000000000     -6.095120000000000
H       1.178620000000000    -14.006480000000000     -5.618710000000000
H      -0.140680000000000    -13.513080000000000     -4.485100000000000
H      -0.244420000000000    -11.256200000000000     -5.574080000000000
H       1.099230000000000    -11.706720000000001     -6.676940000000000
C      -0.776910000000000    -12.709970000000000     -7.053430000000000
H       2.062350000000000    -13.308590000000001     -3.358340000000000
H      -0.315260000000000    -13.558190000000000     -7.600860000000000
H      -1.664270000000000    -13.073589999999999     -6.491780000000000
H      -1.108190000000000    -11.945770000000000     -7.787700000000000
C       0.122240000000000     -8.572460000000000     -5.497470000000000
C      -0.939640000000000     -7.753890000000000     -5.812490000000000
C      -1.789290000000000     -7.767220000000000     -4.718600000000000
C      -1.211620000000000     -8.604699999999999     -3.788290000000000
N      -0.068150000000000     -9.091080000000000     -4.276700000000000
C      -1.738320000000000     -8.932300000000000     -2.421340000000000
N      -1.041900000000000    -10.087840000000000     -1.820260000000000
C      -1.831740000000000    -11.338100000000001     -1.751240000000000
H      -1.075000000000000     -7.213130000000000     -6.737730000000000
H       0.980350000000000     -8.791420000000000     -6.121550000000000
H      -2.726260000000000     -7.239580000000000     -4.619580000000000
H      -1.560560000000000     -8.055270000000000     -1.792800000000000
H      -2.834070000000000     -9.052980000000000     -2.448970000000000
C      -2.427740000000000    -11.693910000000001     -3.125490000000000
C      -0.900870000000000    -12.496000000000000     -1.340820000000000
C      -2.935730000000000    -11.209030000000000     -0.683360000000000
H      -1.610720000000000    -11.777040000000000     -3.863040000000000
H      -2.969340000000000    -12.660470000000000     -3.080310000000000
H      -3.139940000000000    -10.930420000000000     -3.490800000000000
H      -0.462690000000000    -12.330060000000000     -0.348120000000000
H      -1.462110000000000    -13.454680000000000     -1.288790000000000
H      -0.068390000000000    -12.617250000000000     -2.060620000000000
H      -2.489580000000000    -10.966020000000000      0.304190000000000
H      -3.661180000000000    -10.412739999999999     -0.934120000000000
H      -3.501250000000000    -12.158799999999999     -0.586080000000000
Mg      0.117260000000000     -9.063129999999999      0.365440000000000
C      -1.814360000000000     -8.232379999999999      2.630200000000000
C      -3.370730000000000     -8.046709999999999      0.840680000000000
O      -2.045970000000000     -8.335170000000000      1.239460000000000
C      -2.455970000000000     -9.363049999999999      3.427270000000000
C      -3.846530000000000     -6.644230000000000      1.214300000000000
H      -0.719380000000000     -8.288320000000001      2.765710000000000
H      -2.083170000000000     -7.241830000000000      3.040670000000000
H      -3.372370000000000     -8.080520000000000     -0.266420000000000
H      -4.075110000000000     -8.835470000000001      1.174370000000000
H      -3.108490000000000     -5.884970000000000      0.880720000000000
H      -4.817010000000000     -6.447820000000000      0.715940000000000
H      -4.007150000000000     -6.558840000000000      2.306780000000000
H      -2.140360000000000    -10.349140000000000      3.039520000000000
H      -2.138090000000000     -9.283110000000001      4.487740000000000
H      -3.559580000000000     -9.295600000000000      3.380370000000000
H      -0.636740000000000    -11.294689999999999      1.713190000000000
C       0.933370000000000    -10.766529999999999      3.094600000000000
C       0.388330000000000    -10.880950000000000      1.666380000000000
C       0.718360000000000    -12.044960000000000      3.922650000000000
H       2.015210000000000    -10.528740000000001      3.071870000000000
H       0.402800000000000     -9.956469999999999      3.625010000000000
H       1.110240000000000    -11.859040000000000      4.945940000000000
H      -0.370370000000000    -12.257429999999999      4.005850000000000
C       1.424570000000000    -13.274270000000000      3.353820000000000
H       1.018290000000000    -11.604039999999999      1.120750000000000
H       1.013330000000000    -13.545159999999999      2.359510000000000
H       2.515230000000000    -13.087059999999999      3.267660000000000
H       1.261320000000000    -14.135850000000000      4.035520000000000
C       5.456220000000000     -6.708660000000000      1.118270000000000
C       5.220340000000000     -5.908970000000000      2.221070000000000
C       3.930060000000000     -6.171980000000000      2.642440000000000
C       3.452440000000000     -7.072090000000000      1.803870000000000
N       4.423330000000000     -7.417610000000000      0.855020000000000
C       2.078390000000000     -7.646350000000000      1.830650000000000
N       1.355460000000000     -7.387660000000000      0.583360000000000
C       0.871880000000000     -5.989290000000000      0.326290000000000
H       5.907870000000000     -5.200480000000000      2.658850000000000
H       6.361370000000000     -6.754940000000000      0.533280000000000
H       3.397220000000000     -5.725660000000000      3.468610000000000
H       1.487770000000000     -7.336150000000000      2.714090000000000
H       2.207350000000000     -8.728890000000000      1.916670000000000
C       2.006080000000000     -5.150630000000000     -0.295670000000000
C      -0.273530000000000     -5.998220000000000     -0.698420000000000
C       0.346790000000000     -5.281610000000000      1.596700000000000
H       2.356320000000000     -5.611130000000000     -1.241850000000000
H       1.650980000000000     -4.126800000000000     -0.535130000000000
H       2.867980000000000     -5.041380000000000      0.381780000000000
H      -1.147230000000000     -6.535630000000000     -0.294100000000000
H      -0.610600000000000     -4.959590000000000     -0.922010000000000
H       0.046860000000000     -6.454110000000000     -1.657200000000000
H      -0.502560000000000     -5.839910000000000      2.033610000000000
H       1.140560000000000     -5.166590000000000      2.360500000000000
H      -0.010290000000000     -4.257910000000000      1.352600000000000

-C 0
6-31g(d,p)
****
-H 0
6-31g(d,p)
****
-Mg 0
6-31g(d,p)
****
-N 0
6-31+g(d,p)
****
-Na 0
6-31g(d,p)
****
-O 0
6-31+g(d,p)
****


