%chk=lowest10_c2_a1_speciation0_speciation3_speciationDFT66b_rank09_E200.96.chk
%nprocshared=20
%mem=40GB
#p opt=loose PM7/gen scf=xqc 

lowest10_c2_a1_speciation0_speciation3_speciationDFT66b_rank09_E200.96 DFT input

0 1
Na     -0.309890000000000      0.008070000000000      0.200040000000000
C      -1.023650000000000     -2.291260000000000     -1.813370000000000
C      -2.772540000000000     -2.100110000000000     -0.253230000000000
O      -1.422470000000000     -1.812250000000000     -0.545300000000000
C      -1.276180000000000     -1.254740000000000     -2.904900000000000
C      -2.880870000000000     -3.432830000000000      0.476990000000000
H       0.069050000000000     -2.478270000000000     -1.768050000000000
H      -1.493220000000000     -3.265390000000000     -2.069070000000000
H      -3.150790000000000     -1.298940000000000      0.418630000000000
H      -3.424640000000000     -2.079030000000000     -1.154400000000000
H      -2.265140000000000     -3.411870000000000      1.401590000000000
H      -3.938930000000000     -3.620960000000000      0.752700000000000
H      -2.526160000000000     -4.258370000000000     -0.173430000000000
H      -0.760850000000000     -0.302500000000000     -2.662020000000000
H      -0.879330000000000     -1.635140000000000     -3.869630000000000
H      -2.361810000000000     -1.060170000000000     -3.019500000000000
C       0.528280000000000      2.204650000000000      2.363110000000000
C      -0.378200000000000      0.324000000000000      3.425840000000000
O      -0.251260000000000      1.037590000000000      2.217770000000000
C       2.018990000000000      1.908040000000000      2.210960000000000
C      -1.097100000000000     -0.988820000000000      3.130190000000000
H       0.240160000000000      2.890650000000000      1.538560000000000
H       0.310960000000000      2.746820000000000      3.309380000000000
H       0.613280000000000      0.073980000000000      3.860330000000000
H      -0.987070000000000      0.902060000000000      4.153760000000000
H      -0.514240000000000     -1.593730000000000      2.402520000000000
H      -1.222210000000000     -1.577480000000000      4.062650000000000
H      -2.099260000000000     -0.784840000000000      2.697010000000000
H       2.211360000000000      1.386230000000000      1.250930000000000
H       2.587260000000000      2.861680000000000      2.215600000000000
H       2.385790000000000      1.277800000000000      3.045490000000000
C      -1.646970000000000      2.668240000000000     -0.861790000000000
C       0.363650000000000      2.460620000000000     -2.060990000000000
O      -0.441120000000000      1.948350000000000     -1.020430000000000
C      -2.763560000000000      2.047660000000000     -1.695010000000000
C       1.342870000000000      3.495580000000000     -1.519640000000000
H      -1.938560000000000      2.603340000000000      0.208400000000000
H      -1.534780000000000      3.751950000000000     -1.088240000000000
H       0.946630000000000      1.614730000000000     -2.480910000000000
H      -0.231530000000000      2.872630000000000     -2.906130000000000
H       1.962140000000000      3.052190000000000     -0.711470000000000
H       2.012530000000000      3.835330000000000     -2.336900000000000
H       0.795380000000000      4.371270000000000     -1.115070000000000
H      -2.907530000000000      0.983160000000000     -1.411800000000000
H      -3.711180000000000      2.596130000000000     -1.510170000000000
H      -2.521490000000000      2.107100000000000     -2.776010000000000
C       2.859870000000000     -0.456800000000000     -1.057930000000000
C       2.051290000000000     -2.118490000000000      0.394500000000000
O       1.773380000000000     -0.903630000000000     -0.273770000000000
C       2.762740000000000     -1.000430000000000     -2.479360000000000
C       2.657410000000000     -1.857160000000000      1.768480000000000
H       2.804700000000000      0.650930000000000     -1.105090000000000
H       3.846980000000000     -0.696160000000000     -0.604370000000000
H       1.086740000000000     -2.650390000000000      0.540330000000000
H       2.694650000000000     -2.802070000000000     -0.202640000000000
H       1.977550000000000     -1.222240000000000      2.370010000000000
H       2.803190000000000     -2.819880000000000      2.299700000000000
H       3.637170000000000     -1.346880000000000      1.673890000000000
H       1.794100000000000     -0.710260000000000     -2.937800000000000
H       3.586920000000000     -0.580090000000000     -3.092730000000000
H       2.844510000000000     -2.106470000000000     -2.479040000000000
Na     -3.699880000000000    -15.469220000000000      8.474980000000000
C      -0.624590000000000    -13.804420000000000      8.030640000000000
C      -1.780280000000000    -13.804950000000000      6.030160000000000
O      -1.808100000000000    -14.206950000000001      7.380690000000000
C      -0.697080000000000    -14.256270000000001      9.482490000000000
C      -3.074650000000000    -14.259399999999999      5.371330000000000
H       0.266550000000000    -14.283609999999999      7.565120000000000
H      -0.523350000000000    -12.695309999999999      8.020330000000000
H      -1.721640000000000    -12.695800000000000      5.946210000000000
H      -0.931540000000000    -14.282840000000000      5.489600000000000
H      -3.944280000000000    -13.797340000000000      5.885790000000000
H      -3.088300000000000    -13.959110000000001      4.304480000000000
H      -3.164340000000000    -15.364940000000001      5.434690000000000
H      -0.797000000000000    -15.361879999999999      9.531120000000000
H       0.223820000000000    -13.953250000000001     10.023170000000000
H      -1.576490000000000    -13.794010000000000      9.980210000000000
Mg      3.350430000000000     -9.901470000000000      0.709090000000000
C       1.197990000000000     -8.530419999999999     -0.283550000000000
C      -0.816470000000000     -7.697580000000000      0.551130000000000
O       0.529540000000000     -8.000230000000000      0.844830000000000
C       1.558650000000000     -7.486890000000000     -1.316200000000000
C      -1.638900000000000     -7.785640000000000      1.831360000000000
H       0.336010000000000    -10.376180000000000      1.219180000000000
H       0.698140000000000     -9.416539999999999     -0.730300000000000
H      -0.875900000000000     -6.660970000000000      0.158730000000000
H      -1.270700000000000     -8.405600000000000     -0.177960000000000
H      -1.231030000000000     -7.096110000000000      2.600720000000000
H      -2.691650000000000     -7.505210000000000      1.617690000000000
H      -1.623900000000000     -8.820489999999999      2.233950000000000
H       2.089360000000000     -6.648460000000000     -0.830960000000000
H       2.221410000000000     -7.957600000000000     -2.071380000000000
H       0.640610000000000     -7.113030000000000     -1.809180000000000
H       4.187750000000000    -11.564719999999999     -1.264730000000000
C       5.956280000000000    -10.301970000000001     -1.185850000000000
C       4.431510000000000    -10.493570000000000     -1.123160000000000
C       6.697770000000000    -11.024110000000000     -0.054900000000000
H       6.317500000000000    -10.692460000000001     -2.162610000000000
H       6.186880000000000     -9.224930000000001     -1.154220000000000
H       6.348470000000000    -10.637810000000000      0.923390000000000
H       6.490090000000000    -12.111120000000000     -0.114390000000000
C       8.213300000000000    -10.835770000000000     -0.147610000000000
H       3.975680000000000     -9.915670000000000     -1.955040000000000
H       8.596130000000000    -11.242039999999999     -1.107940000000000
H       8.489179999999999     -9.763790000000000     -0.070440000000000
H       8.707129999999999    -11.382740000000000      0.684200000000000
C       3.854380000000000    -12.578490000000000      1.790780000000000
C       3.470010000000000    -13.653580000000000      2.550610000000000
C       2.251900000000000    -13.327970000000001      3.094900000000000
C       1.934860000000000    -12.067760000000000      2.633480000000000
N       2.935940000000000    -11.606660000000000      1.833680000000000
C       0.646450000000000    -11.373519999999999      2.971970000000000
N      -0.173030000000000    -11.070539999999999      1.789690000000000
C      -0.663680000000000    -12.170090000000000      0.917800000000000
H       4.021190000000000    -14.570290000000000      2.683950000000000
H       4.762710000000000    -12.509610000000000      1.222730000000000
H       1.650760000000000    -13.948670000000000      3.745000000000000
H       0.051260000000000    -11.983200000000000      3.684590000000000
H       0.863040000000000    -10.429130000000001      3.509440000000000
C      -1.283700000000000    -13.311830000000000      1.745050000000000
C      -1.760500000000000    -11.581759999999999      0.008560000000000
C       0.451300000000000    -12.723070000000000     -0.002430000000000
H      -2.095850000000000    -12.915810000000000      2.389860000000000
H      -1.706400000000000    -14.093150000000000      1.078130000000000
H      -0.524110000000000    -13.801439999999999      2.387390000000000
H      -1.351890000000000    -10.762570000000000     -0.619040000000000
H      -2.168690000000000    -12.359349999999999     -0.673500000000000
H      -2.596340000000000    -11.171680000000000      0.614670000000000
H       0.926040000000000    -11.900990000000000     -0.580770000000000
H       1.235500000000000    -13.262029999999999      0.552580000000000
H       0.033840000000000    -13.457610000000001     -0.721980000000000
Mg      6.356340000000000     -8.612620000000000      2.140670000000000
H       8.221940000000000    -10.304539999999999      2.997020000000000
C       6.908670000000000    -10.184360000000000      4.709530000000000
C       7.678580000000000     -9.532999999999999      3.582460000000000
C       5.821790000000000    -11.087249999999999      4.134330000000000
H       7.608110000000000    -10.767300000000001      5.346500000000000
H       6.447130000000000     -9.392780000000000      5.332200000000000
H       5.169550000000000    -10.491709999999999      3.465590000000000
H       6.277240000000000    -11.900639999999999      3.529200000000000
C       4.978710000000000    -11.682750000000000      5.253820000000000
H       8.418120000000000     -8.806630000000000      3.981110000000000
H       5.612480000000000    -12.308949999999999      5.915070000000000
H       4.505490000000000    -10.873170000000000      5.849750000000000
H       4.176740000000000    -12.312989999999999      4.828650000000000
C       7.659450000000000     -5.003290000000000      1.640270000000000
C       8.247240000000000     -5.976610000000000      0.865100000000000
C       7.235260000000000     -6.764110000000000      0.360030000000000
C       6.071790000000000     -6.301980000000000      0.825990000000000
N       6.266090000000000     -5.167480000000000      1.636520000000000
C       4.741800000000000     -6.963860000000000      0.618900000000000
N       4.436890000000000     -7.825240000000000      1.772810000000000
C       3.714080000000000     -7.278830000000000      2.949060000000000
H       9.308460000000000     -6.112430000000000      0.708010000000000
H       8.183380000000000     -4.235920000000000      2.189300000000000
H       7.378400000000000     -7.641640000000000     -0.247630000000000
H       4.830080000000000     -7.644610000000000     -0.251080000000000
H       3.953800000000000     -6.245630000000000      0.336400000000000
C       2.823080000000000     -6.062280000000000      2.609230000000000
C       2.791800000000000     -8.387549999999999      3.486400000000000
C       4.708320000000000     -6.901590000000000      4.049900000000000
H       2.096290000000000     -6.316170000000000      1.811600000000000
H       2.245980000000000     -5.738550000000000      3.501630000000000
H       3.434530000000000     -5.200680000000000      2.274960000000000
H       3.356120000000000     -9.299560000000000      3.751830000000000
H       2.244690000000000     -8.053839999999999      4.394720000000000
H       2.048150000000000     -8.666010000000000      2.716070000000000
H       5.297720000000000     -7.787360000000000      4.341380000000000
H       5.405730000000000     -6.117140000000000      3.715320000000000
H       4.172890000000000     -6.527180000000000      4.948010000000000

-C 0
6-31g(d,p)
****
-H 0
6-31g(d,p)
****
-Mg 0
6-31g(d,p)
****
-N 0
6-31+g(d,p)
****
-Na 0
6-31g(d,p)
****
-O 0
6-31+g(d,p)
****


