%chk=lowest10_c2_a1_speciation0_speciation3_speciationDFT39_rank08_E203.92.chk
%nprocshared=20
%mem=40GB
#p opt=loose PM7/gen scf=xqc 

lowest10_c2_a1_speciation0_speciation3_speciationDFT39_rank08_E203.92 DFT input

0 1
Na      0.149590000000000      0.321510000000000      0.121450000000000
C       2.498760000000000     -1.694230000000000      0.667680000000000
C       3.205690000000000      0.462090000000000      1.282270000000000
O       2.283440000000000     -0.303870000000000      0.538140000000000
C       1.723910000000000     -2.268220000000000      1.850270000000000
C       4.412370000000000      0.812070000000000      0.421640000000000
H       2.116950000000000     -2.176220000000000     -0.255950000000000
H       3.577120000000000     -1.955920000000000      0.729640000000000
H       2.699200000000000      1.406310000000000      1.579010000000000
H       3.515760000000000     -0.032180000000000      2.229660000000000
H       4.083690000000000      1.351550000000000     -0.492370000000000
H       5.103730000000000      1.462530000000000      0.995870000000000
H       4.950790000000000     -0.110270000000000      0.122030000000000
H       0.642320000000000     -2.041380000000000      1.750480000000000
H       1.854010000000000     -3.370650000000000      1.872790000000000
H       2.095970000000000     -1.846510000000000      2.805990000000000
C      -2.177680000000000      2.382490000000000     -0.642100000000000
C      -0.095510000000000      3.224140000000000     -1.305520000000000
O      -0.777490000000000      2.301500000000000     -0.487900000000000
C      -2.664340000000000      1.528340000000000     -1.811130000000000
C       1.400530000000000      2.950750000000000     -1.187760000000000
H      -2.629850000000000      1.968000000000000      0.283750000000000
H      -2.537520000000000      3.431810000000000     -0.721610000000000
H      -0.374760000000000      3.108940000000000     -2.374720000000000
H      -0.291030000000000      4.262720000000000     -0.962110000000000
H       1.632130000000000      1.916770000000000     -1.522950000000000
H       1.972010000000000      3.665100000000000     -1.816090000000000
H       1.725740000000000      3.060970000000000     -0.131510000000000
H      -2.309910000000000      0.483200000000000     -1.697040000000000
H      -3.774270000000000      1.526210000000000     -1.829550000000000
H      -2.298830000000000      1.931180000000000     -2.776750000000000
C      -1.491980000000000      0.641630000000000      2.806920000000000
C      -2.317350000000000     -1.319070000000000      1.809530000000000
O      -1.471440000000000     -0.197540000000000      1.669890000000000
C      -0.394480000000000      0.248520000000000      3.789890000000000
C      -3.702080000000000     -1.015310000000000      1.250610000000000
H      -1.292210000000000      1.679030000000000      2.462890000000000
H      -2.485890000000000      0.666140000000000      3.307110000000000
H      -1.875790000000000     -2.147970000000000      1.218140000000000
H      -2.378500000000000     -1.688340000000000      2.857630000000000
H      -3.625180000000000     -0.695570000000000      0.189950000000000
H      -4.331910000000000     -1.927490000000000      1.304460000000000
H      -4.186490000000000     -0.207500000000000      1.836440000000000
H       0.598020000000000      0.290840000000000      3.292740000000000
H      -0.394510000000000      0.955380000000000      4.646140000000000
H      -0.565720000000000     -0.778190000000000      4.173770000000000
C      -1.037560000000000     -2.262900000000000     -1.833320000000000
C       0.804670000000000     -1.069990000000000     -2.670720000000000
O      -0.108940000000000     -1.223960000000000     -1.602600000000000
C      -0.517550000000000     -3.586800000000000     -1.284100000000000
C       0.276560000000000     -0.076720000000000     -3.699240000000000
H      -1.970850000000000     -2.003740000000000     -1.291150000000000
H      -1.321340000000000     -2.358780000000000     -2.904820000000000
H       1.748240000000000     -0.660790000000000     -2.250520000000000
H       1.073340000000000     -2.036810000000000     -3.151400000000000
H       0.068140000000000      0.897530000000000     -3.214650000000000
H       1.038230000000000      0.076520000000000     -4.492120000000000
H      -0.656460000000000     -0.453870000000000     -4.164830000000000
H      -0.286900000000000     -3.491510000000000     -0.202310000000000
H      -1.293530000000000     -4.368340000000000     -1.416620000000000
H       0.400600000000000     -3.898590000000000     -1.822480000000000
Na     -0.416450000000000    -18.689290000000000     -9.579290000000000
C       0.161720000000000    -17.885580000000001     -6.189570000000000
C      -0.994850000000000    -16.155580000000000     -7.188490000000000
O      -0.414890000000000    -17.423890000000000     -7.389750000000000
C       0.769670000000000    -19.257149999999999     -6.445500000000000
C      -1.606220000000000    -15.691929999999999     -8.502590000000000
H       0.976710000000000    -17.204840000000001     -5.853470000000000
H      -0.609860000000000    -17.994370000000000     -5.393510000000000
H      -1.809550000000000    -16.209009999999999     -6.431780000000000
H      -0.224920000000000    -15.410040000000000     -6.884760000000000
H      -2.384640000000000    -16.412620000000000     -8.833299999999999
H      -2.070960000000000    -14.691950000000000     -8.374750000000001
H      -0.819920000000000    -15.627929999999999     -9.285060000000000
H       1.547680000000000    -19.185459999999999     -7.235570000000000
H       1.234040000000000    -19.648050000000001     -5.516130000000000
H      -0.018770000000000    -19.964780000000001     -6.780640000000000
Mg     -0.678700000000000    -12.644159999999999     -0.095670000000000
H       0.778150000000000    -14.148429999999999      1.799670000000000
C      -1.298670000000000    -13.955950000000000      2.474380000000000
C      -0.032410000000000    -13.392239999999999      1.844550000000000
C      -1.757080000000000    -15.178340000000000      1.686700000000000
H      -1.134070000000000    -14.231970000000000      3.537050000000000
H      -2.078170000000000    -13.166480000000000      2.432750000000000
H      -1.769300000000000    -14.933360000000000      0.616720000000000
H      -1.031630000000000    -16.006219999999999      1.830490000000000
C      -3.157550000000000    -15.618440000000000      2.095690000000000
H       0.315150000000000    -12.519220000000001      2.439150000000000
H      -3.182940000000000    -15.879770000000001      3.173210000000000
H      -3.887350000000000    -14.802370000000000      1.897280000000000
H      -3.454870000000000    -16.504259999999999      1.496100000000000
C      -5.586500000000000    -10.521430000000001      0.202730000000000
C      -5.123840000000000    -11.791230000000001     -0.060660000000000
C      -3.785340000000000    -11.817080000000001      0.285820000000000
C      -3.442580000000000    -10.614380000000001      0.739370000000000
N      -4.547410000000000     -9.737450000000001      0.732110000000000
C      -2.068440000000000    -10.224069999999999      1.203420000000000
N      -1.174410000000000    -10.048040000000000      0.043490000000000
C      -0.739630000000000     -8.659260000000000     -0.226980000000000
H      -5.707990000000000    -12.606560000000000     -0.469200000000000
H      -6.595230000000000    -10.171659999999999      0.031520000000000
H      -3.125590000000000    -12.660880000000001      0.216300000000000
H      -1.665240000000000    -11.005190000000001      1.873910000000000
H      -2.136580000000000     -9.321470000000000      1.833790000000000
C       0.276250000000000     -8.231619999999999      0.846790000000000
C      -0.047600000000000     -8.602630000000000     -1.603210000000000
C      -1.937960000000000     -7.686610000000000     -0.306550000000000
H       1.133780000000000     -8.940180000000000      0.859240000000000
H       0.664430000000000     -7.213570000000000      0.640070000000000
H      -0.174580000000000     -8.236499999999999      1.858780000000000
H      -0.738780000000000     -8.942480000000000     -2.398370000000000
H       0.270040000000000     -7.566620000000000     -1.845710000000000
H       0.862810000000000     -9.217440000000000     -1.645080000000000
H      -2.647460000000000     -8.025350000000000     -1.091690000000000
H      -2.493690000000000     -7.595220000000000      0.643880000000000
H      -1.583860000000000     -6.668440000000000     -0.567310000000000
Mg     -2.152840000000000    -10.920690000000000     -2.138010000000000
H      -4.432250000000000    -10.728809999999999     -3.722250000000000
C      -3.354660000000000     -8.864950000000000     -4.143720000000000
C      -3.788580000000000     -9.991600000000000     -3.201640000000000
C      -2.658370000000000     -9.376790000000000     -5.409410000000000
H      -4.275470000000000     -8.333299999999999     -4.464160000000000
H      -2.710200000000000     -8.133010000000001     -3.608490000000000
H      -3.310270000000000    -10.133820000000000     -5.896520000000000
H      -2.526430000000000     -8.526490000000001     -6.111770000000000
C      -1.281220000000000     -9.971230000000000     -5.146530000000000
H      -4.383140000000000     -9.534150000000000     -2.380850000000000
H      -0.596280000000000     -9.199610000000000     -4.738700000000000
H      -1.352780000000000    -10.806680000000000     -4.435240000000000
H      -0.855650000000000    -10.353330000000000     -6.097990000000000
C       3.220740000000000    -13.638960000000001     -1.083690000000000
C       3.149760000000000    -12.456650000000000     -0.371470000000000
C       2.080180000000000    -11.756629999999999     -0.884740000000000
C       1.555100000000000    -12.508160000000000     -1.847500000000000
N       2.292720000000000    -13.699140000000000     -1.963240000000000
C       0.390790000000000    -12.143280000000001     -2.732360000000000
N      -0.900020000000000    -12.601710000000001     -2.183680000000000
C      -1.514950000000000    -13.805540000000001     -2.810950000000000
H       3.807720000000000    -12.132580000000001      0.424550000000000
H       3.952560000000000    -14.419050000000000     -0.938820000000000
H       1.755650000000000    -10.789090000000000     -0.551810000000000
H       0.591000000000000    -12.452059999999999     -3.772970000000000
H       0.349340000000000    -11.044100000000000     -2.788160000000000
C      -0.597160000000000    -15.027170000000000     -2.625910000000000
C      -2.875020000000000    -14.104360000000000     -2.155480000000000
C      -1.818110000000000    -13.579260000000000     -4.309850000000000
H      -0.395840000000000    -15.195280000000000     -1.544920000000000
H      -1.065020000000000    -15.942250000000000     -3.045790000000000
H       0.367100000000000    -14.878990000000000     -3.149750000000000
H      -3.566200000000000    -13.241619999999999     -2.261010000000000
H      -3.353260000000000    -14.989960000000000     -2.628840000000000
H      -2.774730000000000    -14.344350000000000     -1.095420000000000
H      -2.521910000000000    -12.729430000000001     -4.432940000000000
H      -0.916910000000000    -13.392160000000001     -4.920820000000000
H      -2.307870000000000    -14.478260000000001     -4.739680000000000

-C 0
6-31g(d,p)
****
-H 0
6-31g(d,p)
****
-Mg 0
6-31g(d,p)
****
-N 0
6-31+g(d,p)
****
-Na 0
6-31g(d,p)
****
-O 0
6-31+g(d,p)
****


