%chk=lowest10_c2_a1_speciation0_speciation0_speciationDFT66b_rank10_E163.90.chk
%nprocshared=20
%mem=40GB
#p opt=loose PM7/gen scf=xqc 

lowest10_c2_a1_speciation0_speciation0_speciationDFT66b_rank10_E163.90 DFT input

0 1
Na     -1.583590000000000     -0.976960000000000     -0.914840000000000
C       1.419690000000000      0.637450000000000     -0.518010000000000
C       0.261400000000000      0.636850000000000      1.488280000000000
O       0.239970000000000      0.233660000000000      0.138290000000000
C       1.339140000000000      0.178320000000000     -1.968780000000000
C      -1.034910000000000      0.176400000000000      2.144150000000000
H       1.517700000000000      1.746870000000000     -0.513360000000000
H       2.314410000000000      0.162500000000000     -0.055180000000000
H       1.110010000000000      0.162350000000000      2.031410000000000
H       0.314000000000000      1.746300000000000      1.571180000000000
H      -1.121460000000000     -0.929680000000000      2.080090000000000
H      -1.054600000000000      0.476730000000000      3.212650000000000
H      -1.906120000000000      0.633310000000000      1.626970000000000
H       0.455680000000000      0.635190000000000     -2.464510000000000
H       2.254980000000000      0.477380000000000     -2.520110000000000
H       1.238730000000000     -0.926560000000000     -2.011790000000000
Na      8.203410000000000     -7.381300000000000      9.635690000000000
C       7.336780000000000     -9.212840000000000      6.751510000000000
C       6.181840000000000     -7.211900000000000      6.752270000000000
O       7.110130000000000     -8.010429999999999      7.450080000000000
C       8.343209999999999    -10.041760000000000      7.537200000000000
C       5.969850000000000     -5.928170000000000      7.541610000000000
H       6.397120000000000     -9.804349999999999      6.664240000000000
H       7.768260000000000     -9.011880000000000      5.744570000000000
H       6.570860000000000     -6.937200000000000      5.745330000000000
H       5.199040000000000     -7.728780000000000      6.663480000000000
H       6.933060000000000     -5.384460000000000      7.646650000000000
H       5.243310000000000     -5.272900000000000      7.020760000000000
H       5.578180000000000     -6.165900000000000      8.553720000000000
H       7.943670000000000    -10.263350000000001      8.550110000000000
H       8.543400000000000    -10.998550000000000      7.011220000000000
H       9.296860000000001     -9.481130000000000      7.642100000000000
Mg      1.522720000000000     -7.542880000000000     -0.180340000000000
C       2.172660000000000     -4.931660000000000     -0.681510000000000
C       4.012020000000000     -3.540360000000000     -0.321730000000000
O       3.580970000000000     -4.860420000000000     -0.569460000000000
C       1.646430000000000     -4.413150000000000     -2.000070000000000
C       5.337230000000000     -3.581190000000000      0.430470000000000
H       2.933400000000000     -5.497720000000000      1.663820000000000
H       1.627830000000000     -4.509270000000000      0.189820000000000
H       4.167200000000000     -3.023730000000000     -1.291690000000000
H       3.297580000000000     -2.960920000000000      0.305230000000000
H       6.094390000000000     -4.149010000000000     -0.151110000000000
H       5.707000000000000     -2.546650000000000      0.590150000000000
H       5.208950000000000     -4.066980000000000      1.420680000000000
H       2.189240000000000     -4.892070000000000     -2.834190000000000
H       0.567260000000000     -4.661390000000000     -2.068230000000000
H       1.779360000000000     -3.316300000000000     -2.050590000000000
H      -1.126720000000000     -7.582180000000000      0.404120000000000
C      -1.222970000000000     -8.737760000000000     -1.435440000000000
C      -0.646000000000000     -7.587000000000000     -0.593730000000000
C      -0.917960000000000    -10.120790000000000     -0.848450000000000
H      -2.325610000000000     -8.606180000000000     -1.497720000000000
H      -0.823360000000000     -8.671720000000001     -2.460190000000000
H       0.179360000000000    -10.263859999999999     -0.787300000000000
H      -1.353620000000000    -10.193009999999999      0.168030000000000
C      -1.516840000000000    -11.248849999999999     -1.690890000000000
H      -0.885810000000000     -6.630430000000000     -1.104870000000000
H      -2.621670000000000    -11.147430000000000     -1.744870000000000
H      -1.100590000000000    -11.245030000000000     -2.719440000000000
H      -1.278840000000000    -12.228370000000000     -1.223070000000000
C       1.036270000000000     -9.196270000000000      2.190210000000000
C       1.338300000000000     -9.559760000000001      3.477620000000000
C       2.405700000000000     -8.784440000000000      3.859310000000000
C       2.705050000000000     -7.966970000000000      2.789780000000000
N       1.858810000000000     -8.233900000000000      1.757120000000000
C       3.793940000000000     -6.932730000000000      2.831260000000000
N       3.297150000000000     -5.564010000000000      2.628070000000000
C       2.312370000000000     -4.977020000000000      3.574460000000000
H       0.828880000000000    -10.305529999999999      4.066150000000000
H       0.244350000000000     -9.609909999999999      1.595170000000000
H       2.902320000000000     -8.800760000000000      4.819630000000000
H       4.343540000000000     -6.984510000000000      3.795090000000000
H       4.550660000000000     -7.158430000000000      2.054000000000000
C       2.734180000000000     -5.202950000000000      5.038530000000000
C       2.270110000000000     -3.458310000000000      3.312210000000000
C       0.884090000000000     -5.525600000000000      3.340550000000000
H       3.751230000000000     -4.791920000000000      5.208480000000000
H       2.025910000000000     -4.701150000000000      5.731630000000000
H       2.737790000000000     -6.281890000000000      5.294090000000000
H       1.954240000000000     -3.248490000000000      2.269030000000000
H       1.545250000000000     -2.958930000000000      3.991670000000000
H       3.271260000000000     -3.003610000000000      3.470530000000000
H       0.583080000000000     -5.395290000000000      2.278450000000000
H       0.786170000000000     -6.590120000000000      3.606570000000000
H       0.151330000000000     -4.988170000000000      3.977540000000000
Mg      2.036760000000000    -10.413919999999999     -2.240140000000000
H       1.250560000000000    -12.800599999999999     -1.368580000000000
C       3.211040000000000    -12.623120000000000     -0.475810000000000
C       2.274830000000000    -12.481220000000000     -1.655060000000000
C       2.789570000000000    -11.663629999999999      0.632850000000000
H       3.193790000000000    -13.673790000000000     -0.114520000000000
H       4.241340000000000    -12.384589999999999     -0.805820000000000
H       2.767710000000000    -10.630990000000001      0.232250000000000
H       1.766430000000000    -11.912039999999999      0.988760000000000
C       3.773090000000000    -11.728479999999999      1.793520000000000
H       2.616010000000000    -13.109830000000001     -2.504700000000000
H       3.782990000000000    -12.749890000000001      2.226740000000000
H       4.794240000000000    -11.461700000000000      1.446300000000000
H       3.477060000000000    -11.011170000000000      2.580270000000000
C       2.674020000000000    -10.297920000000000     -6.054540000000000
C       1.391310000000000    -10.602460000000001     -5.660090000000000
C       1.046500000000000     -9.712170000000000     -4.666140000000000
C       2.088020000000000     -8.905320000000000     -4.445860000000000
N       3.156580000000000     -9.211340000000000     -5.309710000000000
C       2.165650000000000     -7.885540000000000     -3.348580000000000
N       2.847080000000000     -8.469970000000000     -2.182280000000000
C       4.322900000000000     -8.376820000000000     -2.048610000000000
H       0.781590000000000    -11.409940000000001     -6.041470000000000
H       3.240690000000000    -10.822200000000000     -6.808740000000000
H       0.118280000000000     -9.722840000000000     -4.120230000000000
H       1.132740000000000     -7.662670000000000     -3.014650000000000
H       2.563480000000000     -6.918770000000000     -3.699970000000000
C       4.931570000000000     -7.171260000000000     -2.800950000000000
C       4.645380000000000     -8.195250000000000     -0.554670000000000
C       4.978530000000000     -9.673130000000000     -2.530480000000000
H       4.466870000000000     -6.222430000000000     -2.465030000000000
H       6.022990000000000     -7.100250000000000     -2.606110000000000
H       4.793590000000000     -7.269360000000000     -3.896760000000000
H       4.239420000000000     -9.020610000000000      0.057330000000000
H       5.742400000000000     -8.154400000000001     -0.379630000000000
H       4.199630000000000     -7.252820000000000     -0.184280000000000
H       4.595050000000000    -10.526199999999999     -1.945660000000000
H       4.769150000000000     -9.862090000000000     -3.595430000000000
H       6.080250000000000     -9.625930000000000     -2.398420000000000

-C 0
6-31g(d,p)
****
-H 0
6-31g(d,p)
****
-Mg 0
6-31g(d,p)
****
-N 0
6-31+g(d,p)
****
-Na 0
6-31g(d,p)
****
-O 0
6-31+g(d,p)
****


