%chk=lowest10_c2_a1_speciation0_speciation0_speciationDFT39_rank10_E166.25.chk
%nprocshared=20
%mem=40GB
#p opt=loose PM7/gen scf=xqc 

lowest10_c2_a1_speciation0_speciation0_speciationDFT39_rank10_E166.25 DFT input

0 1
Na     -1.853630000000000     -0.991070000000000      0.001400000000000
C       0.679210000000000      1.140510000000000     -1.000900000000000
C       1.257650000000000      0.138160000000000      1.003190000000000
O       0.272920000000000      0.235830000000000      0.000060000000000
C      -0.416630000000000      1.208090000000000     -2.056680000000000
C       0.770030000000000     -0.848640000000000      2.055980000000000
H       0.816310000000000      2.162810000000000     -0.580850000000000
H       1.613790000000000      0.791990000000000     -1.496340000000000
H       2.214180000000000     -0.249520000000000      0.584670000000000
H       1.417750000000000      1.121740000000000      1.500430000000000
H       0.599920000000000     -1.842820000000000      1.591270000000000
H       1.523600000000000     -0.953020000000000      2.864320000000000
H      -0.185290000000000     -0.492190000000000      2.497680000000000
H      -1.366620000000000      1.554910000000000     -1.596110000000000
H      -0.129640000000000      1.913830000000000     -2.864020000000000
H      -0.580060000000000      0.201920000000000     -2.499200000000000
Na      0.984170000000000    -13.394090000000000     12.474740000000001
C       1.562310000000000    -10.858150000000000     10.079760000000000
C       0.405790000000000    -12.588010000000001      9.081130000000000
O       0.985830000000000    -12.128430000000000     10.280250000000001
C       2.170400000000000    -10.393509999999999     11.395250000000001
C      -0.205680000000000    -13.957890000000001      9.336040000000001
H       2.377210000000000    -10.907500000000001      9.322070000000000
H       0.790630000000000    -10.114470000000001      9.775869999999999
H      -0.408890000000000    -11.905830000000000      8.749280000000001
H       1.175690000000000    -12.697520000000001      8.283540000000000
H      -0.984200000000000    -13.884200000000000     10.125439999999999
H      -0.670340000000000    -14.346610000000000      8.405820000000000
H       0.580540000000000    -14.667740000000000      9.671550000000000
H       2.948590000000000    -11.113329999999999     11.728270000000000
H       2.634570000000000     -9.393179999999999     11.268509999999999
H       1.382070000000000    -10.329730000000000     12.175720000000000
Mg      0.720260000000000     -8.203370000000000      2.495550000000000
H       2.178580000000000     -5.808170000000000      2.850150000000000
C       0.102630000000000     -5.320050000000000      2.345350000000000
C       1.368160000000000     -6.148240000000000      2.172960000000000
C      -0.356050000000000     -5.388860000000000      3.797840000000000
H       0.268100000000000     -4.262840000000000      2.052530000000000
H      -0.676440000000000     -5.750640000000000      1.681880000000000
H      -0.369460000000000     -6.437830000000000      4.121860000000000
H       0.369550000000000     -4.849920000000000      4.442490000000000
C      -1.756000000000000     -4.813280000000000      3.973570000000000
H       1.715910000000000     -6.069930000000000      1.119660000000000
H      -1.780400000000000     -3.749410000000000      3.660930000000000
H      -2.485810000000000     -5.392950000000000      3.365890000000000
H      -2.053870000000000     -4.889520000000000      5.040390000000000
C      -4.135740000000000     -8.998049999999999      0.476000000000000
C      -3.712460000000000     -8.595870000000000      1.731000000000000
C      -2.374560000000000     -8.278870000000000      1.604300000000000
C      -2.048040000000000     -8.491149999999999      0.341310000000000
N      -3.176570000000000     -8.936540000000001     -0.371330000000000
C      -0.683430000000000     -8.291200000000000     -0.255160000000000
N       0.217130000000000     -9.379000000000000      0.171180000000000
C       0.655990000000000    -10.306929999999999     -0.895300000000000
H      -4.310650000000000     -8.539930000000000      2.632430000000000
H      -5.134710000000000     -9.324100000000000      0.222230000000000
H      -1.715580000000000     -7.914570000000000      2.367750000000000
H      -0.276200000000000     -7.317020000000000      0.073720000000000
H      -0.766810000000000     -8.204829999999999     -1.351580000000000
C       1.672000000000000     -9.588850000000001     -1.800330000000000
C       1.351080000000000    -11.524319999999999     -0.254540000000000
C      -0.539880000000000    -10.866619999999999     -1.699130000000000
H       2.528630000000000     -9.223920000000000     -1.191040000000000
H       2.062810000000000    -10.276230000000000     -2.578010000000000
H       1.219830000000000     -8.710290000000001     -2.301510000000000
H       0.661200000000000    -12.044460000000001      0.437730000000000
H       1.670790000000000    -12.252770000000000     -1.029160000000000
H       2.261450000000000    -11.248540000000000      0.297130000000000
H      -1.249680000000000    -11.375790000000000     -1.012460000000000
H      -1.096470000000000    -10.092079999999999     -2.256460000000000
H      -0.184050000000000    -11.603870000000001     -2.448850000000000
Mg     -0.755890000000000    -10.833410000000001      2.021870000000000
H      -3.033000000000000    -12.302130000000000      2.651590000000000
C      -1.956250000000000    -13.598570000000000      1.246700000000000
C      -2.390530000000000    -12.219810000000001      1.752030000000000
C      -1.258200000000000    -14.438730000000000      2.321720000000000
H      -2.877000000000000    -14.142390000000001      0.947200000000000
H      -1.312670000000000    -13.500060000000000      0.344700000000000
H      -1.909270000000000    -14.483300000000000      3.221410000000000
H      -1.125490000000000    -15.471750000000000      1.935730000000000
C       0.118680000000000    -13.912630000000000      2.704300000000000
H      -2.985910000000000    -11.737860000000000      0.946060000000000
H       0.802980000000000    -13.943560000000000      1.831580000000000
H       0.045930000000000    -12.879360000000000      3.073020000000000
H       0.545710000000000    -14.545660000000000      3.510110000000000
C       4.674230000000000     -8.523930000000000      3.835620000000000
C       4.563360000000000     -8.527300000000000      2.465140000000000
C       3.486780000000000     -9.327890000000000      2.143050000000000
C       2.952280000000000     -9.795859999999999      3.276190000000000
N       3.665960000000000     -9.322430000000001      4.395180000000000
C       1.784330000000000    -10.741370000000000      3.376050000000000
N       0.495820000000000    -10.033910000000001      3.502030000000000
C      -0.118680000000000     -9.975239999999999      4.858740000000000
H       5.207910000000000     -8.001410000000000      1.773480000000000
H       5.421910000000000     -7.992550000000000      4.405170000000000
H       3.155400000000000     -9.524030000000000      1.140000000000000
H       1.975450000000000    -11.502280000000001      4.152110000000000
H       1.746010000000000    -11.324120000000001      2.442540000000000
C       0.797340000000000     -9.204480000000000      5.825750000000000
C      -1.477560000000000     -9.257099999999999      4.789710000000000
C      -0.421500000000000    -11.386010000000001      5.412930000000000
H       1.004880000000000     -8.186080000000000      5.428850000000000
H       0.325780000000000     -9.105630000000000      6.825810000000000
H       1.756510000000000     -9.737730000000001      5.968190000000000
H      -2.168350000000000     -9.778269999999999      4.093770000000000
H      -1.956530000000000     -9.224940000000000      5.792870000000000
H      -1.374100000000000     -8.218220000000001      4.471080000000000
H      -1.124070000000000    -11.918770000000000      4.738390000000000
H       0.480490000000000    -12.007230000000000      5.558300000000000
H      -0.911320000000000    -11.308009999999999      6.406210000000000

-C 0
6-31g(d,p)
****
-H 0
6-31g(d,p)
****
-Mg 0
6-31g(d,p)
****
-N 0
6-31+g(d,p)
****
-Na 0
6-31g(d,p)
****
-O 0
6-31+g(d,p)
****


