%chk=lowest10_c2_a1_speciation0_speciation3_speciationDFT66b_rank10_E201.16.chk
%nprocshared=20
%mem=40GB
#p opt=loose PM7/gen scf=xqc 

lowest10_c2_a1_speciation0_speciation3_speciationDFT66b_rank10_E201.16 DFT input

0 1
Na      0.257300000000000     -0.199040000000000     -0.203800000000000
C      -1.132630000000000      1.412620000000000     -2.510570000000000
C       0.645480000000000      0.179730000000000     -3.431460000000000
O       0.072870000000000      0.719350000000000     -2.260190000000000
C      -2.337850000000000      0.479450000000000     -2.434530000000000
C       1.620370000000000      1.174840000000000     -4.047620000000000
H      -1.245150000000000      2.178940000000000     -1.716110000000000
H      -1.114760000000000      1.966670000000000     -3.473650000000000
H       1.210840000000000     -0.732670000000000     -3.141490000000000
H      -0.115210000000000     -0.151670000000000     -4.172540000000000
H       2.402170000000000      1.450300000000000     -3.307710000000000
H       2.107540000000000      0.718960000000000     -4.934020000000000
H       1.084180000000000      2.092760000000000     -4.364160000000000
H      -2.371920000000000     -0.030010000000000     -1.449350000000000
H      -3.268260000000000      1.072750000000000     -2.558030000000000
H      -2.294880000000000     -0.284930000000000     -3.236650000000000
C       1.789230000000000     -1.665330000000000      2.185800000000000
C       3.327790000000000     -0.685330000000000      0.715900000000000
O       2.004260000000000     -1.132960000000000      0.896890000000000
C       1.436650000000000     -0.572940000000000      3.193880000000000
C       3.414220000000000      0.010480000000000     -0.639140000000000
H       0.914270000000000     -2.345530000000000      2.112940000000000
H       2.640230000000000     -2.289610000000000      2.536000000000000
H       3.620560000000000      0.053530000000000      1.492280000000000
H       4.029910000000000     -1.546550000000000      0.714290000000000
H       2.722150000000000      0.879420000000000     -0.672720000000000
H       4.447700000000000      0.371790000000000     -0.821010000000000
H       3.133080000000000     -0.696130000000000     -1.448590000000000
H       0.573010000000000      0.021520000000000      2.830930000000000
H       1.162730000000000     -1.039640000000000      4.163150000000000
H       2.297060000000000      0.104950000000000      3.362570000000000
C      -1.031900000000000     -3.085970000000000     -0.130030000000000
C      -2.503910000000000     -1.712940000000000      1.083760000000000
O      -1.260390000000000     -1.804910000000000      0.421800000000000
C      -1.526070000000000     -3.150600000000000     -1.571390000000000
C      -2.347420000000000     -2.046750000000000      2.562530000000000
H       0.065600000000000     -3.259600000000000     -0.133430000000000
H      -1.473570000000000     -3.904020000000000      0.481700000000000
H      -2.852760000000000     -0.662680000000000      0.997930000000000
H      -3.293950000000000     -2.337930000000000      0.611020000000000
H      -1.591880000000000     -1.379310000000000      3.028310000000000
H      -3.318570000000000     -1.902180000000000      3.080000000000000
H      -2.024670000000000     -3.100490000000000      2.688770000000000
H      -1.027460000000000     -2.369430000000000     -2.183880000000000
H      -1.285320000000000     -4.144580000000000     -2.000910000000000
H      -2.624380000000000     -3.000530000000000     -1.613830000000000
C      -1.427470000000000      2.040080000000000      1.795710000000000
C       0.429380000000000      2.870200000000000      0.618550000000000
O      -0.394990000000000      1.750710000000000      0.876360000000000
C      -2.681880000000000      2.516820000000000      1.071150000000000
C       1.602720000000000      2.918280000000000      1.590550000000000
H      -1.671710000000000      1.098630000000000      2.330600000000000
H      -1.117060000000000      2.766710000000000      2.578710000000000
H       0.838660000000000      2.757400000000000     -0.408220000000000
H      -0.132990000000000      3.830080000000000      0.624100000000000
H       2.185730000000000      1.978170000000000      1.530300000000000
H       2.268720000000000      3.766270000000000      1.326500000000000
H       1.244170000000000      3.053190000000000      2.631040000000000
H      -3.009730000000000      1.759410000000000      0.328590000000000
H      -3.498060000000000      2.669910000000000      1.807750000000000
H      -2.488190000000000      3.474950000000000      0.547220000000000
Na      5.864120000000000    -10.541499999999999      9.671540000000000
C       4.997310000000000    -12.373120000000000      6.787040000000000
C       3.842380000000000    -10.372180000000000      6.787800000000000
O       4.770680000000000    -11.170710000000000      7.485630000000000
C       6.003730000000000    -13.202059999999999      7.572700000000000
C       3.630380000000000     -9.088440000000000      7.577110000000000
H       4.057640000000000    -12.964610000000000      6.699770000000000
H       5.428790000000000    -12.172150000000000      5.780110000000000
H       4.231410000000000    -10.097500000000000      5.780860000000000
H       2.859590000000000    -10.889070000000000      6.699010000000000
H       4.593580000000000     -8.544720000000000      7.682140000000000
H       2.903830000000000     -8.433190000000000      7.056230000000000
H       3.238690000000000     -9.326160000000000      8.589219999999999
H       5.604210000000000    -13.423679999999999      8.585610000000001
H       6.203900000000000    -14.158849999999999      7.046690000000000
H       6.957400000000000    -12.641460000000000      7.677600000000000
Mg     -0.816770000000000    -10.703120000000000     -0.144590000000000
C      -0.166670000000000     -8.091110000000000     -0.645810000000000
C       1.672280000000000     -6.699230000000000     -0.285850000000000
O       1.241600000000000     -8.019460000000000     -0.533650000000000
C      -0.692740000000000     -7.572830000000000     -1.964480000000000
C       2.997470000000000     -6.739860000000000      0.466330000000000
H       0.593890000000000     -8.658010000000001      1.699300000000000
H      -0.711620000000000     -7.668570000000000      0.225360000000000
H       1.827500000000000     -6.182610000000000     -1.255790000000000
H       0.957700000000000     -6.119850000000000      0.341020000000000
H       3.754600000000000     -7.307750000000000     -0.115340000000000
H       3.367070000000000     -5.705240000000000      0.626150000000000
H       2.869240000000000     -7.226020000000000      1.456370000000000
H      -0.150070000000000     -8.052070000000001     -2.798530000000000
H      -1.771990000000000     -7.820820000000000     -2.032700000000000
H      -0.559200000000000     -6.476100000000000     -2.015040000000000
H      -3.466330000000000    -10.742540000000000      0.439840000000000
C      -3.562370000000000    -11.897959999999999     -1.399810000000000
C      -2.985520000000000    -10.747240000000000     -0.557970000000000
C      -3.257460000000000    -13.281000000000001     -0.812780000000000
H      -4.665000000000000    -11.766380000000000     -1.462250000000000
H      -3.162600000000000    -11.831920000000000     -2.424500000000000
H      -2.160160000000000    -13.424080000000000     -0.751500000000000
H      -3.693230000000000    -13.353220000000000      0.203650000000000
C      -3.856270000000000    -14.409030000000000     -1.655320000000000
H      -3.225340000000000     -9.790630000000000     -1.069030000000000
H      -4.961100000000000    -14.307620000000000     -1.709350000000000
H      -3.439960000000000    -14.405139999999999     -2.683850000000000
H      -3.618290000000000    -15.388560000000000     -1.187530000000000
C      -1.303150000000000    -12.356650000000000      2.225970000000000
C      -1.001120000000000    -12.720200000000000      3.513410000000000
C       0.066210000000000    -11.944739999999999      3.894980000000000
C       0.365590000000000    -11.127210000000000      2.825580000000000
N      -0.480860000000000    -11.394310000000001      1.792810000000000
C       1.454380000000000    -10.092980000000001      2.866860000000000
N       0.957770000000000     -8.724200000000000      2.663530000000000
C      -0.026830000000000     -8.136910000000000      3.609910000000000
H      -1.510420000000000    -13.465999999999999      4.101920000000000
H      -2.095120000000000    -12.770460000000000      1.630960000000000
H       0.562900000000000    -11.961069999999999      4.855350000000000
H       2.004010000000000    -10.144720000000000      3.830710000000000
H       2.211070000000000    -10.318820000000001      2.089610000000000
C       0.394890000000000     -8.362909999999999      5.074010000000000
C      -0.068770000000000     -6.618070000000000      3.347560000000000
C      -1.455170000000000     -8.685499999999999      3.376140000000000
H       1.411940000000000     -7.951960000000000      5.244030000000000
H      -0.313410000000000     -7.861130000000000      5.767090000000000
H       0.398390000000000     -9.441870000000000      5.329580000000000
H      -0.384630000000000     -6.408170000000000      2.304390000000000
H      -0.793480000000000     -6.118620000000000      4.027110000000000
H       0.932390000000000     -6.163310000000000      3.505790000000000
H      -1.756270000000000     -8.555310000000000      2.314060000000000
H      -1.553100000000000     -9.750040000000000      3.642210000000000
H      -2.187900000000000     -8.148110000000001      4.013190000000000
Mg     -0.303010000000000    -13.574120000000001     -2.204280000000000
H      -1.088800000000000    -15.961100000000000     -1.332910000000000
C       0.871660000000000    -15.783440000000001     -0.440200000000000
C      -0.064590000000000    -15.641540000000001     -1.619430000000000
C       0.450140000000000    -14.824020000000001      0.668500000000000
H       0.854520000000000    -16.834129999999998     -0.078950000000000
H       1.901930000000000    -15.544810000000000     -0.770220000000000
H       0.428210000000000    -13.791370000000001      0.267950000000000
H      -0.572970000000000    -15.072530000000000      1.024430000000000
C       1.433680000000000    -14.888840000000000      1.829150000000000
H       0.276630000000000    -16.270090000000000     -2.469100000000000
H       1.443650000000000    -15.910259999999999      2.262360000000000
H       2.454810000000000    -14.622000000000000      1.481900000000000
H       1.137630000000000    -14.171559999999999      2.615910000000000
C       0.334640000000000    -13.458250000000000     -6.019200000000000
C      -0.948130000000000    -13.762650000000001     -5.624860000000000
C      -1.292900000000000    -12.872389999999999     -4.630860000000000
C      -0.251300000000000    -12.065690000000000     -4.410450000000000
N       0.817300000000000    -12.371790000000001     -5.274240000000000
C      -0.173700000000000    -11.045890000000000     -3.313180000000000
N       0.507700000000000    -11.630290000000000     -2.146860000000000
C       1.983520000000000    -11.537140000000001     -2.013170000000000
H      -1.557940000000000    -14.569990000000001     -6.006380000000000
H       0.901290000000000    -13.982519999999999     -6.773420000000000
H      -2.221180000000000    -12.882920000000000     -4.085030000000000
H      -1.206620000000000    -10.823079999999999     -2.979250000000000
H       0.224080000000000    -10.079070000000000     -3.664520000000000
C       2.592180000000000    -10.331560000000000     -2.765510000000000
C       2.305930000000000    -11.355520000000000     -0.519230000000000
C       2.639180000000000    -12.833449999999999     -2.495020000000000
H       2.127500000000000     -9.382720000000001     -2.429530000000000
H       3.683620000000000    -10.260579999999999     -2.570710000000000
H       2.454190000000000    -10.429660000000000     -3.861320000000000
H       1.900050000000000    -12.180949999999999      0.092730000000000
H       3.402940000000000    -11.314539999999999     -0.344180000000000
H       1.860050000000000    -10.413110000000000     -0.148880000000000
H       2.255600000000000    -13.686550000000000     -1.910270000000000
H       2.429920000000000    -13.022390000000000     -3.560000000000000
H       3.740890000000000    -12.786289999999999     -2.362840000000000

-C 0
6-31g(d,p)
****
-H 0
6-31g(d,p)
****
-Mg 0
6-31g(d,p)
****
-N 0
6-31+g(d,p)
****
-Na 0
6-31g(d,p)
****
-O 0
6-31+g(d,p)
****


