%chk=lowest10_c2_a1_speciation3_speciation3_speciationDFT133_rank10_E239.82.chk
%nprocshared=20
%mem=40GB
#p opt=loose PM7/gen scf=xqc 

lowest10_c2_a1_speciation3_speciation3_speciationDFT133_rank10_E239.82 DFT input

0 1
Na      0.181220000000000      0.230360000000000     -0.243990000000000
C       1.180630000000000     -2.562510000000000     -1.269500000000000
C       2.077060000000000     -0.892970000000000     -2.662930000000000
O       1.084520000000000     -1.225400000000000     -1.716650000000000
C       2.098630000000000     -2.679420000000000     -0.055890000000000
C       1.567960000000000     -1.154500000000000     -4.074650000000000
H       0.164290000000000     -2.881360000000000     -0.958820000000000
H       1.490660000000000     -3.261560000000000     -2.075680000000000
H       2.289480000000000      0.193810000000000     -2.562040000000000
H       3.042550000000000     -1.413990000000000     -2.478890000000000
H       0.633260000000000     -0.581490000000000     -4.255220000000000
H       2.333640000000000     -0.836110000000000     -4.811750000000000
H       1.361240000000000     -2.235160000000000     -4.214790000000000
H       1.749770000000000     -2.013030000000000      0.759800000000000
H       2.084870000000000     -3.725500000000000      0.314470000000000
H       3.140600000000000     -2.410720000000000     -0.323360000000000
C      -1.012140000000000      3.042720000000000      0.684600000000000
C      -1.086890000000000      2.861130000000000     -1.650020000000000
O      -0.520340000000000      2.373360000000000     -0.455960000000000
C      -2.315340000000000      2.421360000000000      1.183660000000000
C      -0.613630000000000      1.974760000000000     -2.798190000000000
H      -0.254500000000000      2.914230000000000      1.486440000000000
H      -1.113310000000000      4.138480000000000      0.524620000000000
H      -2.196690000000000      2.815880000000000     -1.625520000000000
H      -0.744400000000000      3.900270000000000     -1.843880000000000
H      -0.939390000000000      0.924680000000000     -2.635860000000000
H      -1.035010000000000      2.333190000000000     -3.760270000000000
H       0.495010000000000      1.994290000000000     -2.862260000000000
H      -2.182080000000000      1.333320000000000      1.354980000000000
H      -2.607410000000000      2.897460000000000      2.143040000000000
H      -3.134130000000000      2.575280000000000      0.452880000000000
C       2.386740000000000      1.385770000000000      1.701410000000000
C       1.101520000000000     -0.078880000000000      3.015950000000000
O       1.244540000000000      0.555630000000000      1.763040000000000
C       3.590780000000000      0.615020000000000      1.169730000000000
C       0.234850000000000      0.762140000000000      3.945990000000000
H       2.164410000000000      2.210550000000000      0.990860000000000
H       2.620690000000000      1.869510000000000      2.675820000000000
H       0.589510000000000     -1.048370000000000      2.843710000000000
H       2.077360000000000     -0.327110000000000      3.489500000000000
H      -0.753090000000000      0.957790000000000      3.478060000000000
H       0.076270000000000      0.216350000000000      4.899290000000000
H       0.728750000000000      1.731100000000000      4.163740000000000
H       3.364520000000000      0.192930000000000      0.167340000000000
H       4.458430000000000      1.301970000000000      1.078520000000000
H       3.860100000000000     -0.210660000000000      1.859930000000000
C      -2.145610000000000     -1.689190000000000      1.410490000000000
C      -2.426070000000000     -1.462690000000000     -0.912230000000000
O      -1.631560000000000     -1.143870000000000      0.213220000000000
C      -1.563630000000000     -3.074760000000000      1.670230000000000
C      -3.496420000000000     -0.401720000000000     -1.142540000000000
H      -1.836800000000000     -1.020960000000000      2.241200000000000
H      -3.257550000000000     -1.711780000000000      1.431490000000000
H      -1.759860000000000     -1.476260000000000     -1.801340000000000
H      -2.877250000000000     -2.477510000000000     -0.847770000000000
H      -3.026140000000000      0.594120000000000     -1.263000000000000
H      -4.062650000000000     -0.640340000000000     -2.067130000000000
H      -4.202190000000000     -0.365170000000000     -0.288210000000000
H      -0.454680000000000     -3.029760000000000      1.697230000000000
H      -1.928660000000000     -3.452340000000000      2.648190000000000
H      -1.876230000000000     -3.780110000000000      0.874730000000000
Na     10.263460000000000    -15.383770000000000     -0.956900000000000
C      13.310560000000001    -16.253889999999998     -0.714510000000000
C      12.610230000000000    -16.524349999999998     -2.939400000000000
O      12.212280000000000    -16.400490000000001     -1.590770000000000
C      13.680709999999999    -14.784330000000001     -0.541660000000000
C      12.745740000000000    -17.994910000000001     -3.307310000000000
H      13.001810000000001    -16.650060000000000      0.275210000000000
H      14.192000000000000    -16.855989999999998     -1.027460000000000
H      11.815370000000000    -16.071610000000000     -3.570960000000000
H      13.544879999999999    -15.966270000000000     -3.173190000000000
H      11.787010000000000    -18.522060000000000     -3.114330000000000
H      13.001400000000000    -18.089530000000000     -4.382740000000000
H      13.546400000000000    -18.467720000000000     -2.702010000000000
H      12.801880000000001    -14.207170000000000     -0.186710000000000
H      14.493410000000001    -14.695140000000000      0.209200000000000
H      14.033049999999999    -14.353500000000000     -1.501030000000000
C       7.096260000000000    -14.699660000000000     -1.097350000000000
C       7.576760000000000    -16.644369999999999     -2.303470000000000
O       8.098570000000000    -15.468650000000000     -1.727080000000000
C       6.869900000000000    -15.153850000000000      0.342800000000000
C       8.741070000000001    -17.495799999999999     -2.797310000000000
H       7.460720000000000    -13.650880000000001     -1.066000000000000
H       6.144990000000000    -14.681089999999999     -1.674700000000000
H       7.011930000000000    -17.249369999999999     -1.561810000000000
H       6.931080000000000    -16.393609999999999     -3.172680000000000
H       9.409170000000000    -17.764460000000000     -1.950900000000000
H       8.360469999999999    -18.429520000000000     -3.261340000000000
H       9.331930000000000    -16.933530000000001     -3.551180000000000
H       7.827080000000000    -15.142060000000001      0.903340000000000
H       6.160560000000000    -14.463310000000000      0.840640000000000
H       6.443080000000000    -16.176250000000000      0.375250000000000
C      10.186100000000000    -12.314090000000000     -1.800910000000000
C      10.507210000000001    -12.277150000000001      0.523160000000000
O      10.246380000000000    -13.075790000000000     -0.611780000000000
C      11.553800000000001    -12.259100000000000     -2.471570000000000
C       9.200550000000000    -11.847680000000000      1.177620000000000
H       9.478610000000000    -12.820850000000000     -2.491300000000000
H       9.780650000000000    -11.289510000000000     -1.639440000000000
H      11.078120000000000    -12.895420000000000      1.246970000000000
H      11.150390000000000    -11.396260000000000      0.297870000000000
H       8.594820000000000    -12.740840000000000      1.438720000000000
H       9.418810000000001    -11.277630000000000      2.104390000000000
H       8.616529999999999    -11.205100000000000      0.486960000000000
H      11.916639999999999    -13.287920000000000     -2.680440000000000
H      11.475090000000000    -11.705360000000001     -3.430560000000000
H      12.285629999999999    -11.741239999999999     -1.817680000000000
C      10.348089999999999    -15.762980000000001      2.520730000000000
C      10.358990000000000    -17.733229999999999      1.247380000000000
O      10.349690000000001    -16.319330000000001      1.221860000000000
C      11.773479999999999    -15.515150000000000      3.000050000000000
C       8.937239999999999    -18.281300000000002      1.236340000000000
H       9.820580000000000    -14.787649999999999      2.468620000000000
H       9.783049999999999    -16.379069999999999      3.256090000000000
H      10.874810000000000    -18.085000000000001      0.328640000000000
H      10.937080000000000    -18.147659999999998      2.103950000000000
H       8.392770000000001    -17.902550000000002      0.348550000000000
H       8.966300000000000    -19.390029999999999      1.192020000000000
H       8.392740000000000    -17.971969999999999      2.151780000000000
H      12.309180000000000    -14.859529999999999      2.282190000000000
H      11.749630000000000    -15.017550000000000      3.991890000000000
H      12.323860000000000    -16.473859999999998      3.092940000000000
Mg      1.281640000000000     -8.625900000000000     -0.315300000000000
C      -1.647730000000000     -8.340800000000000      0.498680000000000
C      -0.565450000000000     -7.908030000000000      2.542890000000000
O      -0.433570000000000     -8.337249999999999      1.212090000000000
C      -1.802510000000000     -7.065730000000000     -0.312700000000000
C       0.822400000000000     -7.530720000000000      3.041760000000000
H      -1.617750000000000     -9.198520000000000     -0.204330000000000
H      -2.527830000000000     -8.492030000000000      1.141540000000000
H      -1.226990000000000     -7.018490000000000      2.640340000000000
H      -0.940360000000000     -8.741550000000000      3.164240000000000
H       1.211130000000000     -6.669670000000000      2.460120000000000
H       0.787700000000000     -7.264020000000000      4.117900000000000
H       1.522820000000000     -8.380250000000000      2.902080000000000
H      -0.945830000000000     -6.952550000000000     -1.010320000000000
H      -2.742660000000000     -7.117830000000000     -0.901990000000000
H      -1.847890000000000     -6.189200000000000      0.363700000000000
H       2.452240000000000     -6.125340000000000     -0.272880000000000
C       4.253170000000000     -7.239780000000000     -0.858310000000000
C       3.081760000000000     -6.972840000000000      0.067850000000000
C       3.787700000000000     -7.503870000000000     -2.295530000000000
H       4.916580000000000     -6.353360000000000     -0.833790000000000
H       4.809750000000000     -8.124160000000000     -0.480060000000000
H       3.146380000000000     -8.402860000000000     -2.332610000000000
H       3.199710000000000     -6.639360000000000     -2.672180000000000
C       4.981670000000000     -7.734640000000000     -3.213190000000000
H       3.401810000000000     -6.847940000000000      1.121010000000000
H       5.639790000000000     -6.840640000000000     -3.205890000000000
H       5.560650000000000     -8.620770000000000     -2.874700000000000
H       4.630420000000000     -7.913630000000000     -4.251260000000000
C       0.651110000000000     -8.994470000000000     -3.260550000000000
C       0.469260000000000     -9.986689999999999     -4.198560000000000
C       0.600480000000000    -11.192410000000001     -3.530980000000000
C       0.871040000000000    -10.880770000000000     -2.215260000000000
N       0.904940000000000     -9.552360000000000     -2.068270000000000
C       1.083630000000000    -11.852029999999999     -1.091090000000000
N       1.625260000000000    -11.189280000000000      0.112210000000000
C       3.042460000000000    -11.491510000000000      0.420680000000000
H       0.265370000000000     -9.841920000000000     -5.249610000000000
H       0.610470000000000     -7.925780000000000     -3.432800000000000
H       0.522620000000000    -12.181089999999999     -3.958980000000000
H       0.107300000000000    -12.284689999999999     -0.847470000000000
H       1.704210000000000    -12.698610000000000     -1.430400000000000
C       3.948530000000000    -11.248630000000000     -0.802770000000000
C       3.519810000000000    -10.545270000000000      1.539060000000000
C       3.176130000000000    -12.940170000000000      0.929130000000000
H       3.832410000000000    -10.203690000000000     -1.141690000000000
H       5.013200000000000    -11.422800000000001     -0.543030000000000
H       3.705290000000000    -11.912730000000000     -1.653390000000000
H       2.942380000000000    -10.690230000000000      2.462580000000000
H       4.586660000000000    -10.736100000000000      1.789580000000000
H       3.416220000000000     -9.484510000000000      1.237590000000000
H       2.529860000000000    -13.097970000000000      1.818280000000000
H       2.883390000000000    -13.678050000000001      0.158300000000000
H       4.223410000000000    -13.155220000000000      1.221010000000000
Mg     -0.321720000000000    -11.550979999999999      1.982420000000000
C      -0.678430000000000    -14.468489999999999      2.948180000000000
C       0.274890000000000    -14.996549999999999      0.833700000000000
O      -0.165090000000000    -13.988040000000000      1.721330000000000
C       0.402680000000000    -15.019170000000001      3.872450000000000
C      -0.811780000000000    -15.991120000000000      0.428320000000000
H      -1.153210000000000    -13.602990000000000      3.445830000000000
H      -1.507130000000000    -15.188510000000001      2.816640000000000
H       0.573550000000000    -14.477610000000000     -0.098530000000000
H       1.188390000000000    -15.499190000000000      1.211080000000000
H      -1.712960000000000    -15.451490000000000      0.068630000000000
H      -0.426340000000000    -16.634840000000001     -0.387860000000000
H      -1.081560000000000    -16.651890000000002      1.275300000000000
H       1.200290000000000    -14.270930000000000      4.036270000000000
H      -0.052930000000000    -15.270070000000000      4.852990000000000
H       0.852170000000000    -15.936050000000000      3.445450000000000
H       1.638210000000000    -12.105610000000000      3.772120000000000
C       0.164030000000000    -11.597610000000000      5.263310000000000
C       0.834070000000000    -11.357300000000000      3.904930000000000
C       1.175400000000000    -11.761710000000001      6.411750000000000
H      -0.522820000000000    -10.762010000000000      5.503560000000000
H      -0.418790000000000    -12.534990000000001      5.221310000000000
H       0.605050000000000    -11.965809999999999      7.343730000000000
H       1.829030000000000    -12.639110000000001      6.211230000000000
C       2.050710000000000    -10.531530000000000      6.645410000000000
H       1.304150000000000    -10.358930000000001      3.927590000000000
H       2.696980000000000    -10.330100000000000      5.766310000000000
H       1.419790000000000     -9.642930000000000      6.855870000000000
H       2.712240000000000    -10.715680000000001      7.518640000000000
C      -4.930510000000000     -8.159440000000000      3.443290000000000
C      -5.769640000000000     -9.116320000000000      3.983040000000000
C      -5.060570000000000    -10.302280000000000      4.017480000000000
C      -3.874660000000000    -10.030540000000000      3.505500000000000
N      -3.792710000000000     -8.675620000000000      3.156940000000000
C      -2.767490000000000    -11.010059999999999      3.309520000000000
N      -2.370130000000000    -11.112740000000001      1.903530000000000
C      -3.291960000000000    -11.831970000000000      0.961910000000000
H      -6.791140000000000     -8.969040000000000      4.302840000000000
H      -5.163740000000000     -7.120860000000000      3.268180000000000
H      -5.397110000000000    -11.266590000000001      4.366920000000000
H      -2.980490000000000    -12.005920000000000      3.743940000000000
H      -1.911760000000000    -10.614140000000001      3.865010000000000
C      -4.383960000000000    -10.866350000000001      0.458960000000000
C      -2.517690000000000    -12.304349999999999     -0.278910000000000
C      -3.959700000000000    -13.077870000000001      1.589900000000000
H      -3.926780000000000     -9.992720000000000     -0.049000000000000
H      -5.047930000000000    -11.370930000000000     -0.275080000000000
H      -5.027580000000000    -10.500320000000000      1.275560000000000
H      -1.754170000000000    -13.047510000000001      0.005420000000000
H      -3.200690000000000    -12.804610000000000     -1.003530000000000
H      -2.041050000000000    -11.453130000000000     -0.805940000000000
H      -3.196620000000000    -13.809290000000001      1.917550000000000
H      -4.603070000000000    -12.809419999999999      2.450850000000000
H      -4.617030000000000    -13.582760000000000      0.848790000000000

-C 0
6-31g(d,p)
****
-H 0
6-31g(d,p)
****
-Mg 0
6-31g(d,p)
****
-N 0
6-31+g(d,p)
****
-Na 0
6-31g(d,p)
****
-O 0
6-31+g(d,p)
****


