%chk=lowest10_c2_a1_speciation3_speciation3_speciationDFT11_rank09_E202.61.chk
%nprocshared=20
%mem=40GB
#p opt=loose PM7/gen scf=xqc 

lowest10_c2_a1_speciation3_speciation3_speciationDFT11_rank09_E202.61 DFT input

0 1
Na     -0.072170000000000      0.216000000000000      0.287850000000000
C      -0.129750000000000     -2.642760000000000      1.586720000000000
C      -0.423010000000000     -1.045850000000000      3.287200000000000
O       0.019190000000000     -1.291030000000000      1.969800000000000
C      -1.500250000000000     -2.897930000000000      0.966260000000000
C       0.730900000000000     -1.206630000000000      4.268380000000000
H       0.638640000000000     -2.855960000000000      0.815330000000000
H       0.069180000000000     -3.345780000000000      2.422120000000000
H      -0.779660000000000      0.006230000000000      3.333190000000000
H      -1.290690000000000     -1.678640000000000      3.578010000000000
H       1.564550000000000     -0.526740000000000      3.990200000000000
H       0.386730000000000     -0.954570000000000      5.292540000000000
H       1.100000000000000     -2.252640000000000      4.259930000000000
H      -1.665140000000000     -2.221330000000000      0.102160000000000
H      -1.550460000000000     -3.948040000000000      0.608950000000000
H      -2.305700000000000     -2.737200000000000      1.711190000000000
C       0.201720000000000      3.118870000000000     -1.022780000000000
C       1.413790000000000      3.013700000000000      0.978830000000000
O       0.399530000000000      2.431360000000000      0.193370000000000
C       1.161090000000000      2.631310000000000     -2.106820000000000
C       1.657590000000000      2.113310000000000      2.185990000000000
H      -0.829680000000000      2.885470000000000     -1.362190000000000
H       0.246640000000000      4.223210000000000     -0.899890000000000
H       2.370650000000000      3.092750000000000      0.419790000000000
H       1.093410000000000      4.012860000000000      1.344580000000000
H       1.979610000000000      1.102250000000000      1.855570000000000
H       2.448680000000000      2.544690000000000      2.833870000000000
H       0.724070000000000      2.010290000000000      2.778870000000000
H       1.081800000000000      1.530880000000000     -2.223890000000000
H       0.899410000000000      3.110070000000000     -3.073590000000000
H       2.208510000000000      2.894410000000000     -1.857940000000000
C      -3.058100000000000      1.059310000000000     -0.319110000000000
C      -2.413700000000000     -0.289190000000000     -2.132630000000000
O      -2.002880000000000      0.361350000000000     -0.949050000000000
C      -3.758370000000000      0.173730000000000      0.706180000000000
C      -2.203540000000000      0.616250000000000     -3.340450000000000
H      -2.614810000000000      1.924970000000000      0.218140000000000
H      -3.787460000000000      1.484050000000000     -1.044420000000000
H      -1.778460000000000     -1.190660000000000     -2.257240000000000
H      -3.462680000000000     -0.657350000000000     -2.083030000000000
H      -1.141110000000000      0.933540000000000     -3.401700000000000
H      -2.465640000000000      0.064770000000000     -4.267230000000000
H      -2.845170000000000      1.517790000000000     -3.263980000000000
H      -3.028750000000000     -0.190190000000000      1.460700000000000
H      -4.544810000000000      0.760650000000000      1.225760000000000
H      -4.232480000000000     -0.697230000000000      0.208810000000000
C       1.367410000000000     -1.479140000000000     -2.343510000000000
C       2.707130000000000     -1.155360000000000     -0.440470000000000
O       1.437710000000000     -0.960020000000000     -1.031810000000000
C       0.890490000000000     -2.927560000000000     -2.328920000000000
C       3.627910000000000      0.025630000000000     -0.725220000000000
H       0.623910000000000     -0.873790000000000     -2.902870000000000
H       2.325780000000000     -1.378990000000000     -2.899450000000000
H       2.560130000000000     -1.219040000000000      0.658970000000000
H       3.182020000000000     -2.114120000000000     -0.745480000000000
H       3.165070000000000      0.964860000000000     -0.363280000000000
H       4.593310000000000     -0.120810000000000     -0.197130000000000
H       3.823190000000000      0.116740000000000     -1.812880000000000
H      -0.090910000000000     -3.005010000000000     -1.815720000000000
H       0.776580000000000     -3.289200000000000     -3.372170000000000
H       1.623620000000000     -3.573390000000000     -1.804030000000000
Na      0.556290000000000     -9.530090000000000      4.711680000000000
C       3.337940000000000     -8.813260000000000      6.043090000000000
C       3.693000000000000    -10.404600000000000      4.352120000000000
O       2.759110000000000     -9.812490000000000      5.229240000000000
C       3.275810000000000     -7.447660000000000      5.365670000000000
C       4.291080000000000    -11.650499999999999      4.991690000000000
H       2.742390000000000     -8.760040000000000      6.978040000000000
H       4.377110000000000     -9.061330000000000      6.351940000000000
H       3.148950000000000    -10.704800000000001      3.430280000000000
H       4.490010000000000     -9.700369999999999      4.022930000000000
H       3.482180000000000    -12.361409999999999      5.265230000000000
H       4.979920000000000    -12.143940000000001      4.275540000000000
H       4.856300000000000    -11.377390000000000      5.906440000000000
H       2.227060000000000     -7.195210000000000      5.105240000000000
H       3.666060000000000     -6.674580000000000      6.060300000000000
H       3.890090000000000     -7.439300000000000      4.442290000000000
C      -2.326940000000000    -10.402310000000000      3.542090000000000
C      -0.980740000000000    -12.282940000000000      3.891830000000000
O      -1.014040000000000    -10.882479999999999      3.736890000000000
C      -3.029070000000000    -10.142480000000001      4.873210000000000
C       0.440600000000000    -12.691670000000000      4.262770000000000
H      -2.243360000000000     -9.430099999999999      3.011470000000000
H      -2.931110000000000    -11.065189999999999      2.883550000000000
H      -1.650710000000000    -12.620520000000001      4.711600000000000
H      -1.252120000000000    -12.783239999999999      2.937120000000000
H       0.746110000000000    -12.208230000000000      5.215600000000000
H       0.499880000000000    -13.792500000000000      4.386300000000000
H       1.147220000000000    -12.380690000000000      3.464340000000000
H      -2.418880000000000     -9.461069999999999      5.501200000000000
H      -4.014110000000000     -9.666639999999999      4.685010000000000
H      -3.197280000000000    -11.089090000000001      5.424790000000000
C       0.157060000000000     -7.635910000000000      2.189400000000000
C      -0.516280000000000     -6.337220000000000      4.024520000000000
O      -0.106830000000000     -7.612350000000000      3.577820000000000
C       1.628620000000000     -7.346020000000000      1.917370000000000
C      -2.035180000000000     -6.229230000000000      3.996330000000000
H      -0.070450000000000     -8.658770000000001      1.820370000000000
H      -0.497950000000000     -6.944740000000000      1.612100000000000
H      -0.173910000000000     -6.220800000000000      5.073780000000000
H      -0.044840000000000     -5.506440000000000      3.455100000000000
H      -2.484610000000000     -7.038580000000000      4.609670000000000
H      -2.345960000000000     -5.248170000000000      4.411550000000000
H      -2.408700000000000     -6.315470000000000      2.955260000000000
H       2.266630000000000     -8.081550000000000      2.452070000000000
H       1.826920000000000     -7.425750000000000      0.827940000000000
H       1.891320000000000     -6.322320000000000      2.255430000000000
C      -0.705420000000000     -8.092040000000001      7.624340000000000
C       0.263690000000000    -10.218940000000000      7.838680000000000
O      -0.046500000000000     -9.152680000000000      6.962980000000000
C       0.302200000000000     -7.071010000000000      8.139559999999999
C      -0.869330000000000    -11.237150000000000      7.871010000000000
H      -1.363910000000000     -7.591360000000000      6.884030000000000
H      -1.373470000000000     -8.440239999999999      8.443880000000000
H       1.172880000000000    -10.724030000000001      7.448320000000000
H       0.518230000000000     -9.875080000000001      8.866410000000000
H      -1.072680000000000    -11.610329999999999      6.847770000000000
H      -0.579920000000000    -12.094429999999999      8.512230000000001
H      -1.793890000000000    -10.779820000000001      8.278430000000000
H       0.928370000000000     -6.695970000000000      7.303220000000000
H      -0.237910000000000     -6.214840000000000      8.594830000000000
H       0.960590000000000     -7.528340000000000      8.906300000000000
Mg      5.320400000000000    -17.525010000000002     10.289870000000001
H       4.620470000000000    -14.755310000000000     10.310380000000000
C       6.563980000000000    -14.870670000000000      9.352720000000000
C       5.556730000000000    -15.352490000000000     10.386500000000000
C       6.008820000000000    -14.839000000000000      7.919940000000000
H       6.871730000000000    -13.839660000000000      9.622830000000000
H       7.442720000000000    -15.538150000000000      9.414030000000000
H       5.639700000000000    -15.839530000000000      7.608740000000000
H       5.167990000000000    -14.115050000000000      7.865990000000000
C       7.091310000000000    -14.376170000000000      6.944820000000000
H       5.966640000000000    -15.208769999999999     11.404550000000000
H       7.479400000000000    -13.378560000000000      7.242850000000000
H       7.933240000000000    -15.094980000000000      6.937330000000000
H       6.681670000000000    -14.305240000000000      5.915620000000000
C       1.134440000000000    -16.138919999999999      6.147790000000000
C       2.284010000000000    -15.426270000000001      6.422500000000000
C       2.172030000000000    -14.962410000000000      7.718550000000000
C       1.015560000000000    -15.386699999999999      8.219379999999999
N       0.293290000000000    -16.143170000000001      7.266250000000000
C       0.512730000000000    -15.107010000000001      9.595420000000001
N       1.451670000000000    -15.646010000000000     10.588050000000001
C       1.325600000000000    -15.184839999999999     11.990230000000000
H       3.109700000000000    -15.269930000000000      5.743650000000000
H       0.909070000000000    -16.634419999999999      5.212800000000000
H       2.900020000000000    -14.361090000000001      8.251070000000000
H       0.406010000000000    -14.011550000000000      9.689260000000001
H      -0.476780000000000    -15.588690000000000      9.728650000000000
C      -0.060280000000000    -15.572690000000000     12.538330000000000
C       2.401620000000000    -15.887530000000000     12.829260000000000
C       1.534160000000000    -13.656689999999999     12.132080000000000
H      -0.214870000000000    -16.668700000000001     12.436140000000000
H      -0.154680000000000    -15.299260000000000     13.610709999999999
H      -0.866950000000000    -15.050219999999999     11.982790000000000
H       3.415370000000000    -15.613650000000000     12.466960000000000
H       2.327490000000000    -15.589180000000001     13.898899999999999
H       2.282350000000000    -16.987719999999999     12.763140000000000
H       2.537620000000000    -13.355750000000000     11.763000000000000
H       0.765160000000000    -13.071669999999999     11.590130000000000
H       1.452990000000000    -13.356080000000000     13.200480000000001
Mg      3.197200000000000    -16.527830000000002      9.825070000000000
H       3.902230000000000    -19.296209999999999      9.783060000000001
C       2.634490000000000    -18.973649999999999      8.051940000000000
C       3.020150000000000    -18.681699999999999      9.494249999999999
C       3.799650000000000    -18.823139999999999      7.061530000000000
H       2.270480000000000    -20.020040000000002      7.995180000000000
H       1.808960000000000    -18.288129999999999      7.787100000000000
H       4.239080000000000    -17.803830000000001      7.107400000000000
H       4.590040000000000    -19.564129999999999      7.307370000000000
C       3.319370000000000    -19.100629999999999      5.637050000000000
H       2.184830000000000    -18.952470000000002     10.168030000000000
H       2.868260000000000    -20.114030000000000      5.571430000000000
H       2.558160000000000    -18.355160000000001      5.337130000000000
H       4.167270000000000    -19.041770000000000      4.923260000000000
C       8.891010000000000    -17.449880000000000      8.009610000000000
C       7.772900000000000    -18.147539999999999      7.606340000000000
C       7.271720000000000    -18.797509999999999      8.718200000000000
C       8.044850000000000    -18.493800000000000      9.760429999999999
N       9.102100000000000    -17.640619999999998      9.384240000000000
C       7.841530000000000    -18.996520000000000     11.153990000000000
N       6.529170000000000    -18.570170000000001     11.652360000000000
C       5.989170000000000    -19.236580000000000     12.862299999999999
H       7.370100000000000    -18.173900000000000      6.602580000000000
H       9.514570000000001    -16.836449999999999      7.374880000000000
H       6.402140000000000    -19.438749999999999      8.750850000000000
H       7.928830000000000    -20.098140000000001     11.119529999999999
H       8.635640000000000    -18.583570000000002     11.809790000000000
C       6.935670000000000    -18.990189999999998     14.051520000000000
C       4.621320000000000    -18.620500000000000     13.185120000000000
C       5.789230000000000    -20.759150000000002     12.661610000000000
H       7.083950000000000    -17.898440000000001     14.197720000000000
H       6.518530000000000    -19.420159999999999     14.987130000000001
H       7.925760000000000    -19.459779999999999     13.874590000000000
H       3.909690000000000    -18.798310000000001     12.350880000000000
H       4.189920000000000    -19.074030000000000     14.105549999999999
H       4.719750000000000    -17.528030000000001     13.345969999999999
H       5.090270000000000    -20.962810000000001     11.822780000000000
H       6.742210000000000    -21.289899999999999     12.468850000000000
H       5.364260000000000    -21.214639999999999     13.584180000000000

-C 0
6-31g(d,p)
****
-H 0
6-31g(d,p)
****
-Mg 0
6-31g(d,p)
****
-N 0
6-31+g(d,p)
****
-Na 0
6-31g(d,p)
****
-O 0
6-31+g(d,p)
****


