%chk=lowest10_c2_a1_speciation0_speciation3_speciationDFT39_rank02_E202.68.chk
%nprocshared=20
%mem=40GB
#p opt=loose PM7/gen scf=xqc 

lowest10_c2_a1_speciation0_speciation3_speciationDFT39_rank02_E202.68 DFT input

0 1
Na     -0.116250000000000     -0.113900000000000     -0.363850000000000
C      -0.007950000000000     -2.892940000000000      1.114820000000000
C      -0.834420000000000     -3.230800000000000     -1.059050000000000
O      -0.601860000000000     -2.301840000000000     -0.022690000000000
C       1.514480000000000     -2.871550000000000      1.017560000000000
C      -2.236420000000000     -3.811260000000000     -0.935420000000000
H      -0.302350000000000     -2.286060000000000      1.995940000000000
H      -0.383470000000000     -3.921320000000000      1.308210000000000
H      -0.762060000000000     -2.685470000000000     -2.025180000000000
H      -0.067370000000000     -4.035970000000000     -1.101240000000000
H      -2.988260000000000     -2.993570000000000     -0.949870000000000
H      -2.432410000000000     -4.499200000000000     -1.783460000000000
H      -2.335210000000000     -4.371830000000000      0.015570000000000
H       1.877030000000000     -1.832910000000000      0.872170000000000
H       1.947550000000000     -3.270150000000000      1.958890000000000
H       1.862990000000000     -3.498550000000000      0.171890000000000
C      -0.419440000000000      2.757560000000000     -1.766740000000000
C      -2.319860000000000      1.449860000000000     -2.164100000000000
O      -0.965970000000000      1.456650000000000     -1.774020000000000
C      -0.681140000000000      3.468120000000000     -0.440300000000000
C      -2.861490000000000      0.035470000000000     -1.984960000000000
H       0.680440000000000      2.647890000000000     -1.875020000000000
H      -0.758390000000000      3.367220000000000     -2.633140000000000
H      -2.932380000000000      2.126310000000000     -1.530230000000000
H      -2.414430000000000      1.729220000000000     -3.235540000000000
H      -2.780420000000000     -0.277550000000000     -0.921710000000000
H      -3.928070000000000     -0.007670000000000     -2.288700000000000
H      -2.280540000000000     -0.676640000000000     -2.608660000000000
H      -0.315070000000000      2.849740000000000      0.405010000000000
H      -0.142910000000000      4.438890000000000     -0.429160000000000
H      -1.762900000000000      3.665890000000000     -0.302120000000000
C       2.586150000000000      0.231100000000000     -1.980520000000000
C       3.100260000000000      0.887730000000000      0.215090000000000
O       2.086020000000000      0.496530000000000     -0.685610000000000
C       2.941380000000000     -1.244020000000000     -2.130080000000000
C       3.239320000000000      2.404850000000000      0.232680000000000
H       1.780640000000000      0.468860000000000     -2.707810000000000
H       3.449940000000000      0.878920000000000     -2.251130000000000
H       2.797270000000000      0.551930000000000      1.228610000000000
H       4.077680000000000      0.396840000000000      0.008390000000000
H       2.266090000000000      2.874690000000000      0.487870000000000
H       3.990330000000000      2.699760000000000      0.994630000000000
H       3.568530000000000      2.773850000000000     -0.760280000000000
H       2.051960000000000     -1.874690000000000     -1.917680000000000
H       3.277870000000000     -1.439970000000000     -3.169820000000000
H       3.758130000000000     -1.519730000000000     -1.431620000000000
C       0.129800000000000      1.121390000000000      2.860290000000000
C      -1.935100000000000      0.186930000000000      2.245920000000000
O      -0.610950000000000      0.477750000000000      1.844240000000000
C       0.856160000000000      0.100270000000000      3.728570000000000
C      -2.872050000000000      1.337470000000000      1.898130000000000
H       0.889500000000000      1.762270000000000      2.366060000000000
H      -0.491100000000000      1.804370000000000      3.481800000000000
H      -2.268540000000000     -0.711420000000000      1.683750000000000
H      -2.011480000000000     -0.076840000000000      3.324340000000000
H      -2.825040000000000      1.549770000000000      0.811740000000000
H      -3.914030000000000      1.060460000000000      2.162140000000000
H      -2.590760000000000      2.253460000000000      2.456290000000000
H       1.509300000000000     -0.541740000000000      3.101210000000000
H       1.485210000000000      0.629940000000000      4.474040000000000
H       0.128050000000000     -0.541610000000000      4.265340000000000
Na    -11.825640000000000    -16.893899999999999     -5.833650000000000
C      -8.440000000000000    -16.111160000000002     -5.132460000000000
C      -9.794530000000000    -14.998440000000000     -3.631730000000000
O      -9.771280000000001    -15.876180000000000     -4.733900000000000
C      -8.453970000000000    -17.066730000000000     -6.316770000000000
C     -11.243660000000000    -14.768530000000000     -3.228820000000000
H      -7.950970000000000    -15.165220000000000     -5.459070000000000
H      -7.857500000000000    -16.589079999999999     -4.311950000000000
H      -9.263690000000000    -15.443899999999999     -2.760540000000000
H      -9.351060000000000    -14.012269999999999     -3.899560000000000
H     -11.716770000000000    -15.734209999999999     -2.949040000000000
H     -11.292350000000001    -14.077800000000000     -2.361140000000000
H     -11.807280000000000    -14.324120000000001     -4.076970000000000
H      -9.026490000000001    -16.619830000000000     -7.157660000000000
H      -7.416270000000000    -17.270170000000000     -6.654430000000000
H      -8.933380000000000    -18.025600000000001     -6.024610000000000
Mg     -3.069520000000000    -12.131440000000000     -0.598240000000000
H      -0.786140000000000    -12.950720000000000     -2.055990000000000
C      -0.656110000000000    -13.715090000000000     -0.006090000000000
C      -0.987720000000000    -12.623970000000000     -1.014940000000000
C      -1.460390000000000    -14.969120000000000     -0.332510000000000
H       0.428750000000000    -13.951760000000000     -0.005010000000000
H      -0.935370000000000    -13.339320000000001      1.000740000000000
H      -2.512890000000000    -14.693720000000001     -0.481650000000000
H      -1.092730000000000    -15.409090000000001     -1.283220000000000
C      -1.388150000000000    -15.993760000000000      0.793060000000000
H      -0.378580000000000    -11.720969999999999     -0.791250000000000
H      -0.337960000000000    -16.302990000000001      0.970250000000000
H      -1.808410000000000    -15.562609999999999      1.728680000000000
H      -1.991780000000000    -16.884360000000001      0.518930000000000
C      -4.120890000000000    -12.346320000000000      4.635640000000000
C      -4.189840000000000    -13.269119999999999      3.616100000000000
C      -3.520910000000000    -12.729950000000001      2.532830000000000
C      -3.063970000000000    -11.527960000000000      2.873240000000000
N      -3.394570000000000    -11.221170000000001      4.209830000000000
C      -2.294030000000000    -10.608190000000000      1.969370000000000
N      -3.201390000000000     -9.995740000000000      0.980800000000000
C      -3.435040000000000     -8.542439999999999      1.138470000000000
H      -4.683950000000000    -14.231560000000000      3.664200000000000
H      -4.556300000000000    -12.462030000000000      5.618610000000000
H      -3.376880000000000    -13.196759999999999      1.577250000000000
H      -1.499790000000000    -11.175990000000001      1.450030000000000
H      -1.755000000000000     -9.861910000000000      2.577240000000000
C      -2.168270000000000     -7.779380000000000      0.713270000000000
C      -4.594460000000000     -8.112670000000000      0.218250000000000
C      -3.868860000000000     -8.181500000000000      2.577810000000000
H      -1.900890000000000     -8.043139999999999     -0.333900000000000
H      -2.331430000000000     -6.685100000000000      0.769240000000000
H      -1.302300000000000     -8.036550000000000      1.354510000000000
H      -5.516450000000000     -8.671239999999999      0.470130000000000
H      -4.809960000000000     -7.029160000000000      0.330710000000000
H      -4.369340000000000     -8.270270000000000     -0.846550000000000
H      -4.783590000000000     -8.750670000000000      2.850030000000000
H      -3.093360000000000     -8.393030000000000      3.335950000000000
H      -4.095050000000000     -7.096870000000000      2.647710000000000
Mg     -5.515960000000000    -11.070639999999999      0.889710000000000
H      -7.624380000000000    -11.812440000000000      2.553140000000000
C      -7.871640000000000     -9.643900000000000      2.331610000000000
C      -7.003440000000000    -10.899940000000001      2.449300000000000
C      -8.889070000000000     -9.723910000000000      1.188090000000000
H      -8.443669999999999     -9.549390000000001      3.278870000000000
H      -7.235020000000000     -8.737489999999999      2.228450000000000
H      -9.481870000000001    -10.657430000000000      1.299640000000000
H      -9.582070000000000     -8.859400000000001      1.266900000000000
C      -8.253000000000000     -9.676420000000000     -0.195010000000000
H      -6.384730000000000    -10.797530000000000      3.367550000000000
H      -7.728540000000000     -8.711000000000000     -0.348710000000000
H      -7.537470000000000    -10.502129999999999     -0.318440000000000
H      -9.042610000000000     -9.776430000000000     -0.968830000000000
C      -2.980390000000000    -11.268079999999999     -4.672240000000000
C      -2.383690000000000    -10.280080000000000     -3.917840000000000
C      -3.186010000000000    -10.082250000000000     -2.815300000000000
C      -4.202840000000000    -10.931490000000000     -2.930560000000000
N      -4.066710000000000    -11.675990000000001     -4.109370000000000
C      -5.372580000000000    -11.050689999999999     -1.983750000000000
N      -5.142860000000000    -12.052210000000001     -0.926240000000000
C      -5.834570000000000    -13.364319999999999     -1.070850000000000
H      -1.467740000000000     -9.747339999999999     -4.148750000000000
H      -2.617600000000000    -11.661390000000001     -5.605990000000000
H      -3.003920000000000     -9.372629999999999     -2.032740000000000
H      -6.312090000000000    -11.175670000000000     -2.549580000000000
H      -5.493300000000000    -10.075460000000000     -1.486240000000000
C      -5.355980000000000    -14.078569999999999     -2.347730000000000
C      -5.522180000000000    -14.257110000000001      0.142690000000000
C      -7.372030000000000    -13.204739999999999     -1.086700000000000
H      -4.250990000000000    -14.203790000000000     -2.326190000000000
H      -5.824350000000000    -15.080980000000000     -2.441060000000000
H      -5.632080000000000    -13.499620000000000     -3.250560000000000
H      -5.846280000000000    -13.771490000000000      1.087350000000000
H      -6.047020000000000    -15.234030000000001      0.058190000000000
H      -4.457320000000000    -14.488170000000000      0.215490000000000
H      -7.717760000000000    -12.736520000000001     -0.141370000000000
H      -7.746130000000000    -12.612159999999999     -1.940930000000000
H      -7.857800000000000    -14.200740000000000     -1.158080000000000

-C 0
6-31g(d,p)
****
-H 0
6-31g(d,p)
****
-Mg 0
6-31g(d,p)
****
-N 0
6-31+g(d,p)
****
-Na 0
6-31g(d,p)
****
-O 0
6-31+g(d,p)
****


