%chk=lowest10_c2_a1_speciation0_speciation3_speciationDFT11_rank07_E166.92.chk
%nprocshared=20
%mem=40GB
#p opt=loose PM7/gen scf=xqc 

lowest10_c2_a1_speciation0_speciation3_speciationDFT11_rank07_E166.92 DFT input

0 1
Na     -0.304050000000000     -0.130240000000000     -0.213810000000000
C       1.799350000000000      0.271620000000000     -2.523330000000000
C      -0.157230000000000     -0.652160000000000     -3.440900000000000
O       0.599500000000000     -0.430150000000000     -2.270800000000000
C       1.586160000000000      1.779970000000000     -2.439090000000000
C       0.209940000000000     -1.996690000000000     -4.053860000000000
H       2.524040000000000     -0.015520000000000     -1.733580000000000
H       2.266810000000000     -0.014220000000000     -3.490520000000000
H      -1.230020000000000     -0.677980000000000     -3.150240000000000
H      -0.059180000000000      0.169770000000000     -4.184700000000000
H       0.054550000000000     -2.807570000000000     -3.310360000000000
H      -0.429940000000000     -2.190310000000000     -4.939180000000000
H       1.273140000000000     -1.996120000000000     -4.370280000000000
H       1.163550000000000      2.055050000000000     -1.450660000000000
H       2.561480000000000      2.295430000000000     -2.564070000000000
H       0.896770000000000      2.124510000000000     -3.236450000000000
C      -2.342080000000000     -0.728470000000000      2.192390000000000
C      -2.263130000000000     -2.545670000000000      0.718840000000000
O      -1.988850000000000     -1.175800000000000      0.901600000000000
C      -1.214930000000000     -0.965070000000000      3.195550000000000
C      -1.702490000000000     -2.968310000000000     -0.634890000000000
H      -2.502000000000000      0.368400000000000      2.123050000000000
H      -3.303800000000000     -1.161700000000000      2.545390000000000
H      -1.770740000000000     -3.169520000000000      1.495340000000000
H      -3.360190000000000     -2.722810000000000      0.715460000000000
H      -0.603930000000000     -2.803450000000000     -0.666950000000000
H      -1.906780000000000     -4.043640000000000     -0.814340000000000
H      -2.173670000000000     -2.372670000000000     -1.445250000000000
H      -0.273510000000000     -0.505350000000000      2.830380000000000
H      -1.482690000000000     -0.501100000000000      4.167780000000000
H      -1.049050000000000     -2.048740000000000      3.358480000000000
C      -2.153070000000000      2.440460000000000     -0.128520000000000
C      -0.230620000000000      3.030550000000000      1.084820000000000
O      -0.929300000000000      1.997870000000000      0.422720000000000
C      -1.962030000000000      2.895730000000000     -1.571000000000000
C      -0.596490000000000      3.056580000000000      2.563590000000000
H      -2.854130000000000      1.578580000000000     -0.127300000000000
H      -2.638250000000000      3.236220000000000      0.480070000000000
H       0.854040000000000      2.812800000000000      0.996090000000000
H      -0.382930000000000      4.028290000000000      0.615390000000000
H      -0.392450000000000      2.067390000000000      3.025010000000000
H       0.011420000000000      3.826370000000000      3.082670000000000
H      -1.671390000000000      3.299140000000000      2.691090000000000
H      -1.535410000000000      2.069780000000000     -2.179060000000000
H      -2.944000000000000      3.185030000000000     -2.000810000000000
H      -1.280340000000000      3.769940000000000     -1.615490000000000
C       2.490620000000000      0.209280000000000      1.799680000000000
C       2.280520000000000     -1.812210000000000      0.623150000000000
O       1.721950000000000     -0.539010000000000      0.880660000000000
C       3.526210000000000      1.059110000000000      1.071950000000000
C       1.731860000000000     -2.851240000000000      1.593700000000000
H       1.798820000000000      0.889020000000000      2.339580000000000
H       2.970060000000000     -0.423830000000000      2.579130000000000
H       1.982690000000000     -2.109530000000000     -0.405030000000000
H       3.393290000000000     -1.805980000000000      0.633420000000000
H       0.626220000000000     -2.883340000000000      1.529950000000000
H       2.132920000000000     -3.852510000000000      1.331450000000000
H       2.025390000000000     -2.607360000000000      2.634890000000000
H       3.028670000000000      1.720950000000000      0.332510000000000
H       4.069640000000000      1.689020000000000      1.806730000000000
H       4.257050000000000      0.413420000000000      0.543530000000000
Na     -9.916480000000000     -9.009080000000001      9.874320000000001
C      -8.000340000000000    -10.780889999999999      7.464420000000000
C      -8.925560000000001     -8.916910000000000      6.466820000000000
O      -8.808310000000001     -9.644080000000001      7.668250000000000
C      -7.901450000000000    -11.542460000000000      8.778210000000000
C      -9.801690000000001     -7.699540000000000      6.722840000000000
H      -8.453099999999999    -11.460100000000001      6.706390000000000
H      -6.970430000000000    -10.486330000000001      7.159160000000000
H      -7.929430000000000     -8.557670000000000      6.120970000000000
H      -9.416720000000000     -9.531120000000000      5.678960000000000
H      -9.343200000000000     -7.060060000000000      7.507260000000000
H      -9.910030000000001     -7.106300000000000      5.790790000000000
H     -10.808430000000000     -8.022560000000000      7.064460000000000
H      -8.913910000000000    -11.855930000000001      9.111840000000001
H      -7.268400000000000    -12.445050000000000      8.648590000000000
H      -7.450270000000000    -10.893720000000000      9.559380000000001
Mg     -2.975600000000000    -11.241239999999999     -0.575360000000000
H      -5.340550000000000    -12.822150000000001     -0.565710000000000
C      -3.916390000000000    -13.923100000000000     -1.778600000000000
C      -4.522380000000000    -12.614280000000001     -1.290540000000000
C      -3.453600000000000    -14.842739999999999     -0.638850000000000
H      -4.685240000000000    -14.466160000000000     -2.366610000000000
H      -3.069230000000000    -13.670190000000000     -2.442050000000000
H      -2.715630000000000    -14.330940000000000      0.014920000000000
H      -4.331650000000000    -15.136810000000001     -0.025270000000000
C      -2.824620000000000    -16.115259999999999     -1.206350000000000
H      -4.959530000000000    -12.065799999999999     -2.147450000000000
H      -3.544020000000000    -16.639669999999999     -1.871470000000000
H      -1.916890000000000    -15.866899999999999     -1.790840000000000
H      -2.535650000000000    -16.802810000000001     -0.384120000000000
C      -3.762140000000000    -14.170240000000000      4.678600000000000
C      -3.919000000000000    -14.688820000000000      3.411320000000000
C      -4.963720000000000    -14.007910000000001      2.815930000000000
C      -5.415080000000000    -13.100350000000001      3.681220000000000
N      -4.699200000000000    -13.147240000000000      4.894840000000000
C      -6.546160000000000    -12.157489999999999      3.420080000000000
N      -6.226710000000000    -11.300280000000001      2.272500000000000
C      -7.330360000000000    -10.545170000000001      1.632170000000000
H      -3.327990000000000    -15.482130000000000      2.973170000000000
H      -3.026300000000000    -14.489060000000000      5.403230000000000
H      -5.354070000000000    -14.171200000000001      1.821200000000000
H      -7.445070000000000    -12.773809999999999      3.234370000000000
H      -6.711340000000000    -11.525430000000000      4.317250000000000
C      -7.944340000000000     -9.568049999999999      2.651060000000000
C      -6.750000000000000     -9.738780000000000      0.462570000000000
C      -8.433700000000000    -11.473450000000000      1.067980000000000
H      -7.155920000000000     -8.899740000000000      3.059880000000000
H      -8.730309999999999     -8.941580000000000      2.177720000000000
H      -8.410530000000000    -10.119300000000001      3.493120000000000
H      -6.315250000000000    -10.419990000000000     -0.299730000000000
H      -7.541570000000000     -9.132420000000000     -0.032010000000000
H      -5.957630000000000     -9.052650000000000      0.823720000000000
H      -8.016000000000000    -12.177899999999999      0.317620000000000
H      -8.942650000000000    -12.056220000000000      1.860740000000000
H      -9.226509999999999    -10.869479999999999      0.572420000000000
Mg     -4.420490000000000    -11.708220000000001      1.283750000000000
H      -2.050220000000000    -10.131990000000000      1.274880000000000
C      -1.958680000000000    -11.305059999999999      3.099300000000000
C      -2.743030000000000    -10.529460000000000      2.049640000000000
C      -1.066130000000000    -12.404080000000000      2.503970000000000
H      -1.305990000000000    -10.591970000000000      3.644570000000000
H      -2.688920000000000    -11.738519999999999      3.807350000000000
H      -1.662360000000000    -13.123340000000001      1.902960000000000
H      -0.299600000000000    -11.938870000000000      1.848790000000000
C      -0.339540000000000    -13.158989999999999      3.616930000000000
H      -3.248680000000000     -9.667320000000000      2.526360000000000
H       0.257400000000000    -12.455740000000000      4.236490000000000
H      -1.069240000000000    -13.674870000000000      4.270540000000000
H       0.343630000000000    -13.919900000000000      3.185090000000000
C      -0.299800000000000    -13.750190000000000     -2.645170000000000
C      -0.060540000000000    -13.373379999999999     -1.333710000000000
C      -0.356550000000000    -12.027460000000000     -1.253540000000000
C      -0.763100000000000    -11.660019999999999     -2.459260000000000
N      -0.720650000000000    -12.757600000000000     -3.336740000000000
C      -1.193100000000000    -10.279410000000000     -2.846740000000000
N      -2.350470000000000     -9.874450000000000     -2.040250000000000
C      -2.702730000000000     -8.434839999999999     -1.984990000000000
H       0.283770000000000    -14.008380000000001     -0.527590000000000
H      -0.166880000000000    -14.741870000000000     -3.053000000000000
H      -0.283360000000000    -11.387380000000000     -0.386690000000000
H      -0.325880000000000     -9.613400000000000     -2.684000000000000
H      -1.470210000000000    -10.267120000000000     -3.921180000000000
C      -3.062960000000000     -7.937140000000000     -3.396540000000000
C      -3.929540000000000     -8.271810000000000     -1.077200000000000
C      -1.561740000000000     -7.566820000000000     -1.400520000000000
H      -3.884020000000000     -8.555800000000000     -3.818940000000000
H      -3.395900000000000     -6.877250000000000     -3.370280000000000
H      -2.187270000000000     -8.002359999999999     -4.075430000000000
H      -3.693980000000000     -8.605200000000000     -0.044090000000000
H      -4.247960000000000     -7.206320000000000     -1.028510000000000
H      -4.777200000000000     -8.873180000000000     -1.463330000000000
H      -1.296560000000000     -7.895780000000000     -0.373370000000000
H      -0.649960000000000     -7.585840000000000     -2.029160000000000
H      -1.879500000000000     -6.501790000000000     -1.351200000000000

-C 0
6-31g(d,p)
****
-H 0
6-31g(d,p)
****
-Mg 0
6-31g(d,p)
****
-N 0
6-31+g(d,p)
****
-Na 0
6-31g(d,p)
****
-O 0
6-31+g(d,p)
****


