%chk=lowest10_c2_a1_speciation0_speciation3_speciationDFT39_rank05_E203.55.chk
%nprocshared=20
%mem=40GB
#p opt=loose PM7/gen scf=xqc 

lowest10_c2_a1_speciation0_speciation3_speciationDFT39_rank05_E203.55 DFT input

0 1
Na      0.185250000000000      0.231840000000000     -0.248550000000000
C       1.183500000000000     -2.567080000000000     -1.273650000000000
C       2.079390000000000     -0.897760000000000     -2.665810000000000
O       1.085120000000000     -1.230670000000000     -1.721560000000000
C       2.099480000000000     -2.679240000000000     -0.058450000000000
C       1.569620000000000     -1.155290000000000     -4.077570000000000
H       0.167410000000000     -2.888960000000000     -0.965200000000000
H       1.497840000000000     -3.265780000000000     -2.078740000000000
H       2.294340000000000      0.188110000000000     -2.561790000000000
H       3.043890000000000     -1.421660000000000     -2.483470000000000
H       0.635370000000000     -0.580690000000000     -4.255020000000000
H       2.335220000000000     -0.836200000000000     -4.814350000000000
H       1.361150000000000     -2.235470000000000     -4.219420000000000
H       1.745820000000000     -2.012580000000000      0.755040000000000
H       2.089810000000000     -3.725920000000000      0.311880000000000
H       3.140670000000000     -2.405520000000000     -0.324320000000000
C      -1.014870000000000      3.049320000000000      0.683610000000000
C      -1.086690000000000      2.866290000000000     -1.649890000000000
O      -0.520470000000000      2.379090000000000     -0.455350000000000
C      -2.315960000000000      2.423880000000000      1.182680000000000
C      -0.614730000000000      1.979390000000000     -2.797670000000000
H      -0.257120000000000      2.926010000000000      1.486160000000000
H      -1.120820000000000      4.144400000000000      0.520990000000000
H      -2.196570000000000      2.821540000000000     -1.625460000000000
H      -0.743410000000000      3.905090000000000     -1.844430000000000
H      -0.940770000000000      0.929570000000000     -2.634300000000000
H      -1.037710000000000      2.338060000000000     -3.758980000000000
H       0.493840000000000      1.998990000000000     -2.862980000000000
H      -2.177680000000000      1.336900000000000      1.356810000000000
H      -2.611380000000000      2.901520000000000      2.140210000000000
H      -3.134480000000000      2.571930000000000      0.450280000000000
C       2.389120000000000      1.386590000000000      1.705830000000000
C       1.105030000000000     -0.077510000000000      3.020260000000000
O       1.246610000000000      0.556920000000000      1.767140000000000
C       3.590710000000000      0.614720000000000      1.171350000000000
C       0.236270000000000      0.762910000000000      3.948200000000000
H       2.166760000000000      2.213300000000000      0.997630000000000
H       2.625510000000000      1.868010000000000      2.681020000000000
H       0.595760000000000     -1.048630000000000      2.848930000000000
H       2.081320000000000     -0.322400000000000      3.495160000000000
H      -0.751100000000000      0.955660000000000      3.478000000000000
H       0.077950000000000      0.218250000000000      4.902110000000000
H       0.728230000000000      1.733290000000000      4.164380000000000
H       3.360770000000000      0.194180000000000      0.169210000000000
H       4.459300000000000      1.300230000000000      1.079350000000000
H       3.859330000000000     -0.212400000000000      1.860200000000000
C      -2.150410000000000     -1.692660000000000      1.409650000000000
C      -2.430470000000000     -1.465940000000000     -0.911580000000000
O      -1.635290000000000     -1.146910000000000      0.213120000000000
C      -1.565750000000000     -3.076540000000000      1.670230000000000
C      -3.498780000000000     -0.403240000000000     -1.141290000000000
H      -1.844490000000000     -1.023620000000000      2.240890000000000
H      -3.262540000000000     -1.718280000000000      1.429550000000000
H      -1.764760000000000     -1.482010000000000     -1.800910000000000
H      -2.883950000000000     -2.479860000000000     -0.845670000000000
H      -3.025860000000000      0.591440000000000     -1.261450000000000
H      -4.065880000000000     -0.641020000000000     -2.065470000000000
H      -4.203830000000000     -0.365400000000000     -0.286300000000000
H      -0.457050000000000     -3.027750000000000      1.697450000000000
H      -1.929970000000000     -3.449100000000000      2.649620000000000
H      -1.876180000000000     -3.787220000000000      0.877100000000000
Na     -1.008440000000000    -17.850349999999999     -5.780620000000000
C      -0.430280000000000    -17.046589999999998     -2.390850000000000
C      -1.586840000000000    -15.316599999999999     -3.389760000000000
O      -1.006890000000000    -16.584910000000001     -3.591020000000000
C       0.177670000000000    -18.418170000000000     -2.646760000000000
C      -2.198210000000000    -14.852940000000000     -4.703850000000000
H       0.384710000000000    -16.365849999999998     -2.054740000000000
H      -1.201860000000000    -17.155380000000001     -1.594780000000000
H      -2.401540000000000    -15.370030000000000     -2.633050000000000
H      -0.816920000000000    -14.571059999999999     -3.086020000000000
H      -2.976640000000000    -15.573620000000000     -5.034570000000000
H      -2.662960000000000    -13.852959999999999     -4.576010000000000
H      -1.411920000000000    -14.788930000000001     -5.486320000000000
H       0.955690000000000    -18.346480000000000     -3.436830000000000
H       0.642040000000000    -18.809049999999999     -1.717380000000000
H      -0.610760000000000    -19.125789999999999     -2.981900000000000
Mg     -1.270790000000000    -11.805249999999999      3.703020000000000
H       0.186160000000000    -13.309480000000001      5.598370000000000
C      -1.890650000000000    -13.116989999999999      6.273110000000000
C      -0.624400000000000    -12.553290000000001      5.643250000000000
C      -2.349070000000000    -14.339380000000000      5.485440000000000
H      -1.726030000000000    -13.393010000000000      7.335780000000000
H      -2.670140000000000    -12.327510000000000      6.231490000000000
H      -2.361300000000000    -14.094420000000000      4.415460000000000
H      -1.623620000000000    -15.167270000000000      5.629230000000000
C      -3.749540000000000    -14.779480000000000      5.894440000000000
H      -0.276830000000000    -11.680270000000000      6.237830000000000
H      -3.774930000000000    -15.040810000000000      6.971960000000000
H      -4.479340000000000    -13.963410000000000      5.696030000000000
H      -4.046870000000000    -15.665300000000000      5.294850000000000
C      -6.178510000000000     -9.682460000000001      4.001450000000000
C      -5.715860000000000    -10.952270000000000      3.738070000000000
C      -4.377340000000000    -10.978100000000000      4.084470000000000
C      -4.034570000000000     -9.775390000000000      4.537940000000000
N      -5.139400000000000     -8.898470000000000      4.530750000000000
C      -2.660380000000000     -9.385070000000001      5.001800000000000
N      -1.766470000000000     -9.209170000000000      3.841700000000000
C      -1.331690000000000     -7.820400000000000      3.571130000000000
H      -6.300020000000000    -11.767600000000000      3.329570000000000
H      -7.187250000000000     -9.332700000000001      3.830280000000000
H      -3.717580000000000    -11.821890000000000      4.014940000000000
H      -2.257150000000000    -10.166119999999999      5.672370000000000
H      -2.728520000000000     -8.482400000000000      5.632100000000000
C      -0.315870000000000     -7.392940000000000      4.645030000000000
C      -0.639560000000000     -7.763450000000000      2.194900000000000
C      -2.530110000000000     -6.847960000000000      3.491260000000000
H       0.541620000000000     -8.101559999999999      4.657590000000000
H       0.072510000000000     -6.375040000000000      4.438380000000000
H      -0.766680000000000     -7.397800000000000      5.657050000000000
H      -1.330700000000000     -8.103289999999999      1.399750000000000
H      -0.322150000000000     -6.727290000000000      1.952350000000000
H       0.270950000000000     -8.378140000000000      2.153110000000000
H      -3.239670000000000     -7.186890000000000      2.706330000000000
H      -3.085680000000000     -6.756170000000000      4.441780000000000
H      -2.176070000000000     -5.830150000000000      3.229560000000000
Mg     -2.744780000000000    -10.081619999999999      1.660490000000000
H      -5.024030000000000     -9.889400000000000      0.076330000000000
C      -3.946450000000000     -8.025380000000000     -0.344970000000000
C      -4.380400000000000     -9.152170000000000      0.597000000000000
C      -3.250180000000000     -8.537260000000000     -1.610660000000000
H      -4.867280000000000     -7.493780000000000     -0.665430000000000
H      -3.302010000000000     -7.293350000000000      0.190210000000000
H      -3.902100000000000     -9.294320000000001     -2.097750000000000
H      -3.118220000000000     -7.686980000000000     -2.313030000000000
C      -1.873090000000000     -9.131800000000000     -1.347780000000000
H      -4.975030000000000     -8.694889999999999      1.417820000000000
H      -1.188100000000000     -8.360210000000000     -0.939970000000000
H      -1.944730000000000     -9.967320000000001     -0.636530000000000
H      -1.447570000000000     -9.513980000000000     -2.299240000000000
C       2.628720000000000    -12.799970000000000      2.715030000000000
C       2.557750000000000    -11.617640000000000      3.427220000000000
C       1.488180000000000    -10.917610000000000      2.913910000000000
C       0.963090000000000    -11.669169999999999      1.951200000000000
N       1.700700000000000    -12.860180000000000      1.835500000000000
C      -0.201200000000000    -11.304270000000001      1.066340000000000
N      -1.492010000000000    -11.762700000000001      1.614990000000000
C      -2.106930000000000    -12.966530000000001      0.987730000000000
H       3.215710000000000    -11.293580000000000      4.223240000000000
H       3.360540000000000    -13.580069999999999      2.859920000000000
H       1.163630000000000     -9.950040000000000      3.246760000000000
H      -0.000990000000000    -11.613000000000000      0.025710000000000
H      -0.242650000000000    -10.205090000000000      1.010590000000000
C      -1.189160000000000    -14.188170000000000      1.172780000000000
C      -3.467000000000000    -13.265350000000000      1.643210000000000
C      -2.410090000000000    -12.740250000000000     -0.511160000000000
H      -0.987830000000000    -14.356280000000000      2.253770000000000
H      -1.657040000000000    -15.103260000000001      0.752920000000000
H      -0.224900000000000    -14.040020000000000      0.648940000000000
H      -4.158180000000000    -12.402609999999999      1.537700000000000
H      -3.945260000000000    -14.150950000000000      1.169870000000000
H      -3.366690000000000    -13.505340000000000      2.703270000000000
H      -3.113850000000000    -11.890380000000000     -0.634260000000000
H      -1.508880000000000    -12.553170000000000     -1.122130000000000
H      -2.899870000000000    -13.639239999999999     -0.940990000000000

-C 0
6-31g(d,p)
****
-H 0
6-31g(d,p)
****
-Mg 0
6-31g(d,p)
****
-N 0
6-31+g(d,p)
****
-Na 0
6-31g(d,p)
****
-O 0
6-31+g(d,p)
****


