%chk=lowest10_c2_a1_speciation3_speciation3_speciationDFT45_rank01_E216.17.chk
%nprocshared=20
%mem=40GB
#p opt=loose PM7/gen scf=xqc 

lowest10_c2_a1_speciation3_speciation3_speciationDFT45_rank01_E216.17 DFT input

0 1
Na      0.040950000000000      0.324000000000000     -0.212910000000000
C      -0.662170000000000     -1.697590000000000     -2.522450000000000
C      -0.483590000000000      0.458670000000000     -3.440340000000000
O      -0.669560000000000     -0.307550000000000     -2.270130000000000
C       0.750540000000000     -2.267600000000000     -2.438680000000000
C      -1.831560000000000      0.812400000000000     -4.053670000000000
H      -1.272990000000000     -2.181370000000000     -1.732400000000000
H      -1.143880000000000     -1.959480000000000     -3.489400000000000
H       0.029960000000000      1.400930000000000     -3.149730000000000
H       0.179550000000000     -0.037050000000000     -4.183890000000000
H      -2.456430000000000      1.352310000000000     -3.310390000000000
H      -1.679330000000000      1.463350000000000     -4.939030000000000
H      -2.362400000000000     -0.108770000000000     -4.370120000000000
H       1.200570000000000     -2.039250000000000     -1.450450000000000
H       0.708820000000000     -3.369970000000000     -2.563530000000000
H       1.393460000000000     -1.843130000000000     -3.236320000000000
C       0.542660000000000      2.388050000000000      2.192020000000000
C      -1.070860000000000      3.228370000000000      0.718790000000000
O      -0.021520000000000      2.306010000000000      0.901270000000000
C      -0.225970000000000      1.530610000000000      3.195450000000000
C      -1.717610000000000      2.954250000000000     -0.634940000000000
H       1.572330000000000      1.977650000000000      2.122520000000000
H       0.648880000000000      3.437520000000000      2.544880000000000
H      -1.857080000000000      3.113630000000000      1.495480000000000
H      -0.675800000000000      4.267050000000000      0.715550000000000
H      -2.123270000000000      1.920100000000000     -0.667060000000000
H      -2.547950000000000      3.668370000000000     -0.814570000000000
H      -0.966200000000000      3.064810000000000     -1.445340000000000
H      -0.299200000000000      0.485450000000000      2.830430000000000
H       0.310020000000000      1.530340000000000      4.167530000000000
H      -1.247130000000000      1.929300000000000      3.358750000000000
C       3.191670000000000      0.640860000000000     -0.128620000000000
C       2.741340000000000     -1.319140000000000      1.084740000000000
O       2.196480000000000     -0.197710000000000      0.422550000000000
C       3.490820000000000      0.247790000000000     -1.571050000000000
C       2.947100000000000     -1.015320000000000      2.563490000000000
H       2.795610000000000      1.678880000000000     -0.127620000000000
H       4.123240000000000      0.663380000000000      0.480200000000000
H       2.010190000000000     -2.149420000000000      0.996250000000000
H       3.681350000000000     -1.686360000000000      0.615140000000000
H       1.988590000000000     -0.697250000000000      3.025150000000000
H       3.309700000000000     -1.926760000000000      3.082510000000000
H       3.694830000000000     -0.205890000000000      2.690900000000000
H       2.562420000000000      0.291200000000000     -2.179410000000000
H       4.232360000000000      0.953680000000000     -2.000660000000000
H       3.907260000000000     -0.779590000000000     -1.615460000000000
C      -1.061930000000000     -2.266670000000000      1.799610000000000
C      -2.707120000000000     -1.073360000000000      0.623240000000000
O      -1.325230000000000     -1.226260000000000      0.881150000000000
C      -0.842910000000000     -3.587640000000000      1.070830000000000
C      -3.332790000000000     -0.078730000000000      1.593740000000000
H      -0.127930000000000     -2.007610000000000      2.340630000000000
H      -1.850770000000000     -2.366020000000000      2.578140000000000
H      -2.815480000000000     -0.666530000000000     -0.404880000000000
H      -3.258220000000000     -2.040180000000000      0.633270000000000
H      -2.807810000000000      0.894890000000000      1.530120000000000
H      -4.400400000000000      0.074660000000000      1.331330000000000
H      -3.268520000000000     -0.454840000000000      2.634930000000000
H      -0.018800000000000     -3.487780000000000      0.333980000000000
H      -0.573460000000000     -4.375230000000000      1.805200000000000
H      -1.765290000000000     -3.893880000000000      0.537460000000000
Na     -9.852890000000000    -14.643020000000000      9.036350000000001
C      -7.791080000000000    -16.625979999999998      7.652620000000000
C      -9.976100000000001    -17.402780000000000      7.278240000000000
O      -9.140020000000000    -16.587060000000001      8.070850000000000
C      -7.511020000000000    -15.556350000000000      6.601060000000000
C     -10.107640000000000    -18.781590000000001      7.909670000000000
H      -7.161720000000000    -16.408890000000000      8.540690000000000
H      -7.482840000000000    -17.632680000000001      7.293840000000000
H     -10.981529999999999    -16.929549999999999      7.247130000000000
H      -9.637850000000000    -17.478090000000002      6.220260000000000
H     -10.495620000000001    -18.687100000000001      8.946460000000000
H     -10.811240000000000    -19.399840000000001      7.314890000000000
H      -9.119249999999999    -19.284730000000000      7.938090000000000
H      -7.782930000000000    -14.554100000000000      6.992260000000000
H      -6.429570000000000    -15.559780000000000      6.349690000000000
H      -8.092050000000000    -15.753769999999999      5.677240000000000
C     -11.893500000000000    -12.707670000000000     10.648600000000000
C     -12.463390000000000    -14.953760000000001     10.960270000000000
O     -11.752829999999999    -14.027990000000001     10.169879999999999
C     -10.854110000000000    -12.390319999999999     11.721620000000000
C     -12.118110000000000    -16.359320000000000     10.481479999999999
H     -11.708990000000000    -12.027670000000001      9.789999999999999
H     -12.925660000000001    -12.489100000000001     11.002480000000000
H     -12.174410000000000    -14.885009999999999     12.031169999999999
H     -13.558160000000001    -14.801589999999999     10.842660000000000
H     -11.027210000000000    -16.544619999999998     10.583790000000000
H     -12.666069999999999    -17.112800000000000     11.084780000000000
H     -12.399770000000000    -16.478330000000000      9.413720000000000
H      -9.833150000000000    -12.592760000000000     11.337210000000001
H     -10.924480000000001    -11.317830000000001     11.998880000000000
H     -11.024800000000001    -12.998930000000000     12.632220000000000
C     -10.749420000000001    -12.496580000000000      6.861630000000000
C      -8.699690000000000    -11.699750000000000      7.677300000000000
O      -9.723920000000000    -12.660349999999999      7.821210000000000
C     -10.467700000000001    -13.339380000000000      5.622530000000000
C      -8.973020000000000    -10.494949999999999      8.567370000000000
H     -11.697550000000000    -12.852050000000000      7.317820000000000
H     -10.918710000000001    -11.430690000000000      6.586500000000000
H      -7.744980000000000    -12.167650000000000      7.995660000000000
H      -8.551069999999999    -11.387900000000000      6.623350000000000
H      -9.074100000000000    -10.819730000000000      9.624169999999999
H      -8.130890000000001     -9.776090000000000      8.489690000000000
H      -9.909280000000001     -9.989039999999999      8.253670000000000
H     -10.360939999999999    -14.408060000000001      5.905490000000000
H     -11.311769999999999    -13.241020000000001      4.907950000000000
H      -9.535950000000000    -12.999969999999999      5.124160000000000
C      -6.999070000000000    -13.604640000000000     10.769080000000001
C      -7.902490000000000    -15.683450000000001     11.375450000000001
O      -8.006880000000001    -14.562939999999999     10.518969999999999
C      -5.778610000000000    -13.867720000000000      9.894480000000000
C      -8.729160000000000    -15.475300000000001     12.638610000000000
H      -7.410370000000000    -12.607469999999999     10.506990000000000
H      -6.713200000000000    -13.546200000000001     11.843529999999999
H      -8.311010000000000    -16.562860000000001     10.833489999999999
H      -6.848830000000000    -15.938800000000001     11.628679999999999
H      -9.785950000000000    -15.276339999999999     12.370850000000001
H      -8.685639999999999    -16.389589999999998     13.266579999999999
H      -8.338450000000000    -14.618020000000000     13.223920000000000
H      -6.069620000000000    -13.874050000000000      8.823259999999999
H      -5.026870000000000    -13.067480000000000     10.057090000000001
H      -5.322070000000000    -14.845920000000000     10.150090000000001
Mg     -4.201100000000000     -9.950460000000000      4.206090000000000
H      -7.442810000000000    -10.326460000000001      4.975980000000000
C      -6.790620000000000     -8.235609999999999      4.966720000000000
C      -6.541360000000000     -9.719320000000000      5.181630000000000
C      -7.267390000000000     -7.974360000000000      3.536250000000000
H      -7.558040000000000     -7.895450000000000      5.693180000000000
H      -5.844680000000000     -7.681350000000000      5.152230000000000
H      -6.493150000000000     -8.311600000000000      2.816880000000000
H      -8.202470000000000     -8.544180000000001      3.346030000000000
C      -7.539540000000000     -6.491970000000000      3.307530000000000
H      -6.147660000000000     -9.913349999999999      6.201840000000000
H      -8.315030000000000     -6.132340000000000      4.016740000000000
H      -6.609960000000000     -5.900860000000000      3.449690000000000
H      -7.905530000000000     -6.337210000000000      2.270660000000000
C      -3.748480000000000     -7.175210000000000      2.839110000000000
C      -3.491530000000000     -6.608720000000000      1.603360000000000
C      -3.356980000000000     -7.651920000000000      0.709100000000000
C      -3.536370000000000     -8.802379999999999      1.443170000000000
N      -3.771180000000000     -8.513999999999999      2.732420000000000
C      -3.495920000000000    -10.197020000000000      0.959710000000000
N      -4.622790000000000    -10.924060000000001      1.556560000000000
C      -5.795000000000000    -11.184460000000000      0.717820000000000
H      -3.421120000000000     -5.554240000000000      1.379350000000000
H      -3.929800000000000     -6.635810000000000      3.758980000000000
H      -3.149470000000000     -7.580150000000000     -0.351200000000000
H      -2.571180000000000    -10.605620000000000      1.389470000000000
H      -3.406290000000000    -10.294720000000000     -0.141590000000000
C      -5.497820000000000    -12.370860000000000     -0.215220000000000
C      -6.943720000000000    -11.563860000000000      1.666410000000000
C      -6.219210000000000     -9.937230000000000     -0.081080000000000
H      -5.219970000000000    -13.269460000000000      0.380530000000000
H      -6.388440000000000    -12.617550000000000     -0.830080000000000
H      -4.654130000000000    -12.139849999999999     -0.897060000000000
H      -7.154690000000000    -10.733140000000001      2.371830000000000
H      -7.870000000000000    -11.798719999999999      1.102580000000000
H      -6.678070000000000    -12.448499999999999      2.272580000000000
H      -6.393380000000000     -9.085310000000000      0.608270000000000
H      -5.446460000000000     -9.638100000000000     -0.816890000000000
H      -7.156630000000000    -10.138410000000000     -0.638860000000000
Mg     -2.961450000000000    -12.533899999999999      2.428200000000000
H      -0.851010000000000    -14.218340000000000      1.625550000000000
C      -1.288670000000000    -12.968959999999999     -0.131240000000000
C      -1.716030000000000    -13.742550000000000      1.121820000000000
C      -0.179140000000000    -11.953709999999999      0.164440000000000
H      -0.903450000000000    -13.691000000000001     -0.882730000000000
H      -2.179650000000000    -12.461800000000000     -0.561300000000000
H      -0.504600000000000    -11.223310000000000      0.921450000000000
H       0.710260000000000    -12.494130000000000      0.553620000000000
C       0.219210000000000    -11.177140000000000     -1.087520000000000
H      -2.422700000000000    -14.539420000000000      0.803710000000000
H       0.566700000000000    -11.869949999999999     -1.882520000000000
H      -0.642760000000000    -10.586140000000000     -1.465400000000000
H       1.045390000000000    -10.476870000000000     -0.839870000000000
C      -3.128360000000000    -16.058599999999998      3.962140000000000
C      -4.294200000000000    -15.796120000000000      3.279430000000000
C      -4.718560000000000    -14.540030000000000      3.662630000000000
C      -3.837760000000000    -14.042170000000000      4.531980000000000
N      -2.793540000000000    -14.959870000000000      4.771580000000000
C      -3.917410000000000    -12.664830000000000      5.135220000000000
N      -3.076730000000000    -11.722939999999999      4.368220000000000
C      -1.807220000000000    -11.293860000000000      4.987690000000000
H      -4.777590000000000    -16.453109999999999      2.568350000000000
H      -2.546250000000000    -16.965930000000000      3.882770000000000
H      -5.594780000000000    -14.036040000000000      3.294490000000000
H      -3.717790000000000    -12.695220000000001      6.225370000000000
H      -4.966940000000000    -12.316800000000001      5.029960000000000
C      -0.913630000000000    -12.489839999999999      5.354640000000000
C      -1.062700000000000    -10.425810000000000      3.967420000000000
C      -2.089290000000000    -10.423040000000000      6.236690000000000
H      -0.712030000000000    -13.108390000000000      4.454080000000000
H       0.055800000000000    -12.130380000000001      5.761310000000000
H      -1.386850000000000    -13.122920000000001      6.132030000000000
H      -1.673780000000000     -9.552809999999999      3.668980000000000
H      -0.107630000000000    -10.044470000000000      4.384390000000000
H      -0.838340000000000    -11.023680000000001      3.067530000000000
H      -2.705390000000000     -9.536840000000000      5.972430000000000
H      -2.626350000000000    -10.980510000000001      7.028630000000000
H      -1.140660000000000    -10.049289999999999      6.674570000000000

-C 0
6-31g(d,p)
****
-H 0
6-31g(d,p)
****
-Mg 0
6-31g(d,p)
****
-N 0
6-31+g(d,p)
****
-Na 0
6-31g(d,p)
****
-O 0
6-31+g(d,p)
****


