%chk=lowest10_c2_a1_speciation0_speciation0_speciationDFT11_rank10_E130.14.chk
%nprocshared=20
%mem=40GB
#p opt=loose PM7/gen scf=xqc 

lowest10_c2_a1_speciation0_speciation0_speciationDFT11_rank10_E130.14 DFT input

0 1
Na      0.000020000000000      2.188190000000000     -0.001340000000000
C      -1.158870000000000     -1.041370000000000     -0.002390000000000
C       1.158080000000000     -1.041930000000000     -0.001240000000000
O      -0.000260000000000     -0.239550000000000      0.002350000000000
C      -2.374910000000000     -0.122700000000000      0.001670000000000
C       2.374210000000000     -0.123030000000000      0.001160000000000
H      -1.204890000000000     -1.666520000000000     -0.922170000000000
H      -1.204790000000000     -1.679600000000000      0.909180000000000
H       1.203970000000000     -1.677870000000000      0.911800000000000
H       1.203700000000000     -1.670730000000000     -0.919000000000000
H       2.361800000000000      0.522710000000000      0.905580000000000
H       3.309760000000000     -0.720500000000000     -0.000070000000000
H       2.362070000000000      0.526620000000000     -0.900480000000000
H      -2.362700000000000      0.528070000000000     -0.899160000000000
H      -3.310220000000000     -0.720610000000000     -0.000600000000000
H      -2.362540000000000      0.521750000000000      0.906970000000000
Na     -8.558840000000000     -6.089940000000000    -12.144679999999999
C      -8.153960000000000     -6.989760000000000     -8.758250000000000
C      -6.078080000000000     -6.857160000000000     -9.760640000000000
O      -7.466180000000000     -6.716350000000000     -9.957590000000000
C      -9.645890000000000     -6.831690000000000     -9.014570000000001
C      -5.372600000000000     -6.554540000000000    -11.074640000000000
H      -7.970930000000000     -8.036569999999999     -8.424280000000000
H      -7.863320000000000     -6.268760000000000     -7.960570000000000
H      -5.709630000000000     -6.134520000000000     -8.997170000000001
H      -5.823570000000000     -7.900810000000000     -9.468750000000000
H      -5.604900000000000     -5.517910000000000    -11.400230000000001
H      -4.274270000000000     -6.656300000000000    -10.949769999999999
H      -5.713960000000000     -7.262990000000000    -11.859669999999999
H      -9.971790000000000     -7.540550000000000     -9.805820000000001
H     -10.217050000000000     -7.039900000000000     -8.085839999999999
H      -9.865280000000000     -5.794940000000000     -9.348900000000000
Mg     -3.056360000000000     -7.487730000000000     -0.769050000000000
H      -3.812720000000000    -10.011260000000000     -1.871260000000000
C      -3.784360000000000    -10.287540000000000      0.280710000000000
C      -3.233070000000000     -9.656790000000001     -0.989620000000000
C      -5.297010000000000    -10.086169999999999      0.460930000000000
H      -3.587210000000000    -11.378539999999999      0.240190000000000
H      -3.230750000000000     -9.851360000000000      1.131970000000000
H      -5.562810000000000     -9.007520000000000      0.461560000000000
H      -5.836730000000000    -10.586779999999999     -0.370730000000000
C      -5.761370000000000    -10.720120000000000      1.772150000000000
H      -2.179320000000000     -9.963710000000001     -1.133040000000000
H      -5.498460000000000    -11.799540000000000      1.794360000000000
H      -5.276370000000000    -10.220640000000000      2.632630000000000
H      -6.861170000000000    -10.619660000000000      1.883340000000000
C      -8.754450000000000     -7.563650000000000     -2.759110000000000
C      -8.147679999999999     -8.535940000000000     -1.983520000000000
C      -7.126650000000000     -9.067650000000000     -2.745400000000000
C      -7.139330000000000     -8.411780000000000     -3.896450000000000
N      -8.174189999999999     -7.463160000000000     -3.901430000000000
C      -6.197480000000000     -8.648490000000001     -5.038140000000000
N      -4.816750000000000     -8.417840000000000     -4.597950000000000
C      -3.710550000000000     -8.937690000000000     -5.438810000000000
H      -8.413779999999999     -8.819730000000000     -0.972360000000000
H      -9.593640000000001     -6.951250000000000     -2.467070000000000
H      -6.440130000000000     -9.853479999999999     -2.470350000000000
H      -6.350420000000000     -9.690420000000000     -5.374370000000000
H      -6.442700000000000     -7.953760000000000     -5.868400000000000
C      -3.767840000000000     -8.278800000000000     -6.828500000000000
C      -2.378820000000000     -8.567449999999999     -4.771340000000000
C      -3.752670000000000    -10.478350000000001     -5.590000000000000
H      -3.740520000000000     -7.172530000000000     -6.725820000000000
H      -2.908120000000000     -8.598220000000000     -7.455770000000000
H      -4.700030000000000     -8.561420000000000     -7.359040000000000
H      -2.299860000000000     -9.044990000000000     -3.771330000000000
H      -1.517590000000000     -8.915490000000000     -5.384760000000000
H      -2.301030000000000     -7.468270000000000     -4.650790000000000
H      -3.687190000000000    -10.979070000000000     -4.600710000000000
H      -4.667210000000000    -10.828360000000000     -6.107740000000000
H      -2.895120000000000    -10.825690000000000     -6.209430000000000
Mg     -4.565560000000000     -7.924110000000000     -2.573180000000000
H      -3.826890000000000     -5.402670000000000     -1.454850000000000
C      -5.965830000000000     -5.297180000000000     -1.803860000000000
C      -4.573740000000000     -5.771470000000000     -2.193080000000000
C      -6.353330000000000     -5.647960000000000     -0.358960000000000
H      -5.998230000000000     -4.193290000000000     -1.908330000000000
H      -6.678450000000000     -5.748470000000000     -2.517490000000000
H      -6.292940000000000     -6.742590000000000     -0.179230000000000
H      -5.663200000000000     -5.132280000000000      0.342460000000000
C      -7.773980000000000     -5.167220000000000     -0.062900000000000
H      -4.301440000000000     -5.360100000000000     -3.183880000000000
H      -7.857740000000000     -4.074040000000000     -0.244270000000000
H      -8.499829999999999     -5.691330000000000     -0.714910000000000
H      -8.040200000000000     -5.372910000000000      0.994890000000000
C      -3.514560000000000     -8.235880000000000      3.377550000000000
C      -4.243160000000000     -7.269930000000000      2.717520000000000
C      -3.372040000000000     -6.600140000000000      1.879390000000000
C      -2.164390000000000     -7.147980000000000      2.012010000000000
N      -2.176620000000000     -8.196149999999999      2.954590000000000
C      -0.938870000000000     -6.709910000000000      1.275620000000000
N      -1.146740000000000     -6.852530000000000     -0.169640000000000
C      -0.203740000000000     -6.163990000000000     -1.083980000000000
H      -5.301240000000000     -7.080160000000000      2.839780000000000
H      -3.904780000000000     -8.932119999999999      4.106290000000000
H      -3.616290000000000     -5.777330000000000      1.222330000000000
H      -0.745220000000000     -5.659230000000000      1.560240000000000
H      -0.081280000000000     -7.341170000000000      1.587480000000000
C       1.219590000000000     -6.706480000000000     -0.859770000000000
C      -0.623860000000000     -6.464480000000000     -2.529060000000000
C      -0.212110000000000     -4.626910000000000     -0.896600000000000
H       1.229260000000000     -7.810130000000000     -0.991250000000000
H       1.934480000000000     -6.256830000000000     -1.581540000000000
H       1.577540000000000     -6.470340000000000      0.164010000000000
H      -1.642470000000000     -6.067880000000000     -2.726900000000000
H       0.075380000000000     -5.987840000000000     -3.252130000000000
H      -0.623500000000000     -7.558220000000000     -2.710480000000000
H      -1.225850000000000     -4.210910000000000     -1.076290000000000
H       0.126090000000000     -4.319450000000000      0.112500000000000
H       0.490790000000000     -4.149320000000000     -1.615480000000000

-C 0
6-31g(d,p)
****
-H 0
6-31g(d,p)
****
-Mg 0
6-31g(d,p)
****
-N 0
6-31+g(d,p)
****
-Na 0
6-31g(d,p)
****
-O 0
6-31+g(d,p)
****


