%chk=lowest10_c2_a1_speciation3_speciation3_speciationDFT11_rank07_E202.57.chk
%nprocshared=20
%mem=40GB
#p opt=loose PM7/gen scf=xqc 

lowest10_c2_a1_speciation3_speciation3_speciationDFT11_rank07_E202.57 DFT input

0 1
Na     -0.113970000000000     -0.106760000000000     -0.357240000000000
C      -0.007110000000000     -2.879900000000000      1.111630000000000
C      -0.832990000000000     -3.221650000000000     -1.062570000000000
O      -0.596390000000000     -2.290560000000000     -0.029080000000000
C       1.515980000000000     -2.869740000000000      1.019480000000000
C      -2.232350000000000     -3.808830000000000     -0.931900000000000
H      -0.299640000000000     -2.268380000000000      1.989950000000000
H      -0.389770000000000     -3.903260000000000      1.307040000000000
H      -0.769100000000000     -2.675980000000000     -2.029210000000000
H      -0.062380000000000     -4.022820000000000     -1.109120000000000
H      -2.988630000000000     -2.994800000000000     -0.941650000000000
H      -2.429330000000000     -4.493840000000000     -1.782050000000000
H      -2.324610000000000     -4.376500000000000      0.016780000000000
H       1.887480000000000     -1.834390000000000      0.872680000000000
H       1.942500000000000     -3.268370000000000      1.963930000000000
H       1.863560000000000     -3.502430000000000      0.177800000000000
C      -0.414580000000000      2.750000000000000     -1.760480000000000
C      -2.319080000000000      1.445470000000000     -2.157560000000000
O      -0.965420000000000      1.451020000000000     -1.767240000000000
C      -0.679070000000000      3.466040000000000     -0.437380000000000
C      -2.860190000000000      0.030150000000000     -1.980280000000000
H       0.685400000000000      2.635390000000000     -1.862340000000000
H      -0.746200000000000      3.357760000000000     -2.630730000000000
H      -2.931390000000000      2.121330000000000     -1.523000000000000
H      -2.413450000000000      1.726280000000000     -3.228530000000000
H      -2.779980000000000     -0.284240000000000     -0.917340000000000
H      -3.926320000000000     -0.014870000000000     -2.285210000000000
H      -2.277780000000000     -0.681020000000000     -2.603680000000000
H      -0.320740000000000      2.848910000000000      0.412150000000000
H      -0.135130000000000      4.433680000000000     -0.426380000000000
H      -1.760280000000000      3.670580000000000     -0.305590000000000
C       2.578970000000000      0.229280000000000     -1.979210000000000
C       3.092360000000000      0.886130000000000      0.217950000000000
O       2.079530000000000      0.493990000000000     -0.683850000000000
C       2.939470000000000     -1.244800000000000     -2.130890000000000
C       3.235440000000000      2.403390000000000      0.233790000000000
H       1.771040000000000      0.463350000000000     -2.705130000000000
H       3.439270000000000      0.880800000000000     -2.250940000000000
H       2.785660000000000      0.553710000000000      1.231430000000000
H       4.068450000000000      0.391720000000000      0.015050000000000
H       2.263640000000000      2.877660000000000      0.486500000000000
H       3.985480000000000      2.697050000000000      0.997310000000000
H       3.568570000000000      2.770590000000000     -0.758430000000000
H       2.053120000000000     -1.880170000000000     -1.919300000000000
H       3.275560000000000     -1.437930000000000     -3.171410000000000
H       3.758250000000000     -1.518780000000000     -1.434290000000000
C       0.132810000000000      1.119380000000000      2.853050000000000
C      -1.933570000000000      0.184400000000000      2.238850000000000
O      -0.609060000000000      0.475190000000000      1.838340000000000
C       0.857460000000000      0.100020000000000      3.725570000000000
C      -2.871670000000000      1.335410000000000      1.894210000000000
H       0.894500000000000      1.756260000000000      2.356750000000000
H      -0.486740000000000      1.806380000000000      3.470900000000000
H      -2.267220000000000     -0.711830000000000      1.673250000000000
H      -2.009440000000000     -0.083240000000000      3.316060000000000
H      -2.826760000000000      1.550760000000000      0.808400000000000
H      -3.913350000000000      1.056800000000000      2.158040000000000
H      -2.591300000000000      2.250370000000000      2.454280000000000
H       1.510720000000000     -0.545790000000000      3.102110000000000
H       1.487160000000000      0.631780000000000      4.469100000000000
H       0.128510000000000     -0.538520000000000      4.264990000000000
Na      0.105370000000000    -10.036020000000001      3.700730000000000
C       2.887030000000000     -9.319089999999999      5.032040000000000
C       3.242100000000000    -10.910470000000000      3.341110000000000
O       2.308200000000000    -10.318330000000000      4.218220000000000
C       2.824910000000000     -7.953480000000000      4.354590000000000
C       3.840170000000000    -12.156370000000001      3.980700000000000
H       2.291490000000000     -9.265860000000000      5.967000000000000
H       3.926200000000000     -9.567159999999999      5.340910000000000
H       2.698050000000000    -11.210680000000000      2.419280000000000
H       4.039110000000000    -10.206250000000001      3.011920000000000
H       3.031260000000000    -12.867279999999999      4.254240000000000
H       4.529000000000000    -12.649820000000000      3.264550000000000
H       4.405380000000000    -11.883270000000000      4.895450000000000
H       1.776170000000000     -7.701020000000000      4.094150000000000
H       3.215160000000000     -7.180390000000000      5.049220000000000
H       3.439190000000000     -7.945110000000000      3.431210000000000
C      -2.777850000000000    -10.908200000000001      2.531090000000000
C      -1.431650000000000    -12.788840000000000      2.880830000000000
O      -1.464940000000000    -11.388370000000000      2.725890000000000
C      -3.479980000000000    -10.648380000000000      3.862210000000000
C      -0.010310000000000    -13.197559999999999      3.251780000000000
H      -2.694260000000000     -9.935990000000000      2.000470000000000
H      -3.382010000000000    -11.571090000000000      1.872550000000000
H      -2.101620000000000    -13.126420000000000      3.700610000000000
H      -1.703030000000000    -13.289140000000000      1.926130000000000
H       0.295200000000000    -12.714119999999999      4.204600000000000
H       0.048970000000000    -14.298389999999999      3.375310000000000
H       0.696310000000000    -12.886580000000000      2.453350000000000
H      -2.869780000000000     -9.966989999999999      4.490220000000000
H      -4.465020000000000    -10.172540000000000      3.674010000000000
H      -3.648190000000000    -11.595000000000001      4.413790000000000
C      -0.293570000000000     -8.141460000000000      1.178150000000000
C      -0.967010000000000     -6.843510000000000      3.013580000000000
O      -0.557370000000000     -8.118399999999999      2.566560000000000
C       1.177890000000000     -7.850990000000000      0.906230000000000
C      -2.485990000000000     -6.735910000000000      2.985370000000000
H      -0.520860000000000     -9.164330000000000      0.808970000000000
H      -0.948810000000000     -7.450350000000000      0.600980000000000
H      -0.624710000000000     -6.727330000000000      4.062870000000000
H      -0.495430000000000     -6.012490000000000      2.444520000000000
H      -2.935300000000000     -7.545380000000000      3.598600000000000
H      -2.797090000000000     -5.755120000000000      3.400900000000000
H      -2.859550000000000     -6.822020000000000      1.944290000000000
H       1.815970000000000     -8.586480000000000      1.440970000000000
H       1.376200000000000     -7.930840000000000     -0.183160000000000
H       1.440330000000000     -6.827100000000000      1.244200000000000
C      -1.156330000000000     -8.597970000000000      6.613370000000000
C      -0.187210000000000    -10.724850000000000      6.827690000000000
O      -0.497410000000000     -9.658590000000000      5.952000000000000
C      -0.148700000000000     -7.576950000000000      7.128600000000000
C      -1.320240000000000    -11.743050000000000      6.860020000000000
H      -1.814810000000000     -8.097280000000000      5.873060000000000
H      -1.824390000000000     -8.946160000000001      7.432900000000000
H       0.721980000000000    -11.229939999999999      6.437330000000000
H       0.067330000000000    -10.381000000000000      7.855420000000000
H      -1.523590000000000    -12.116230000000000      5.836780000000000
H      -1.030830000000000    -12.600339999999999      7.501240000000000
H      -2.244790000000000    -11.285720000000000      7.267440000000000
H       0.477480000000000     -7.201910000000000      6.292260000000000
H      -0.688810000000000     -6.720780000000000      7.583870000000000
H       0.509690000000000     -8.034280000000001      7.895330000000000
Mg      4.869490000000000    -18.030909999999999      9.278870000000000
H       4.169560000000000    -15.261210000000000      9.299390000000001
C       6.113070000000000    -15.376560000000000      8.341730000000000
C       5.105810000000000    -15.858380000000000      9.375500000000001
C       5.557900000000000    -15.344900000000001      6.908950000000000
H       6.420820000000000    -14.345560000000001      8.611840000000001
H       6.991810000000000    -16.044039999999999      8.403040000000001
H       5.188790000000000    -16.345430000000000      6.597750000000000
H       4.717080000000000    -14.620950000000001      6.855000000000000
C       6.640400000000000    -14.882070000000001      5.933830000000000
H       5.515720000000000    -15.714660000000000     10.393560000000001
H       7.028490000000000    -13.884449999999999      6.231860000000000
H       7.482330000000000    -15.600870000000000      5.926340000000000
H       6.230760000000000    -14.811130000000000      4.904630000000000
C       0.683530000000000    -16.644819999999999      5.136800000000000
C       1.833100000000000    -15.932160000000000      5.411510000000000
C       1.721120000000000    -15.468310000000001      6.707550000000000
C       0.564640000000000    -15.892600000000000      7.208390000000000
N      -0.157620000000000    -16.649069999999998      6.255250000000000
C       0.061820000000000    -15.612909999999999      8.584420000000000
N       1.000760000000000    -16.151910000000001      9.577059999999999
C       0.874680000000000    -15.690740000000000     10.979240000000001
H       2.658790000000000    -15.775829999999999      4.732660000000000
H       0.458160000000000    -17.140319999999999      4.201810000000000
H       2.449110000000000    -14.866989999999999      7.240080000000000
H      -0.044900000000000    -14.517450000000000      8.678269999999999
H      -0.927690000000000    -16.094590000000000      8.717660000000000
C      -0.511190000000000    -16.078589999999998     11.527340000000001
C       1.950700000000000    -16.393419999999999     11.818270000000000
C       1.083250000000000    -14.162590000000000     11.121090000000001
H      -0.665780000000000    -17.174600000000002     11.425150000000000
H      -0.605590000000000    -15.805160000000001     12.599720000000000
H      -1.317860000000000    -15.556110000000000     10.971800000000000
H       2.964450000000000    -16.119540000000001     11.455970000000001
H       1.876580000000000    -16.095070000000000     12.887910000000000
H       1.831440000000000    -17.493620000000000     11.752150000000000
H       2.086710000000000    -13.861649999999999     10.752010000000000
H       0.314250000000000    -13.577570000000000     10.579140000000001
H       1.002070000000000    -13.861980000000001     12.189489999999999
Mg      2.746290000000000    -17.033719999999999      8.814080000000001
H       3.451320000000000    -19.802099999999999      8.772069999999999
C       2.183580000000000    -19.479550000000000      7.040950000000000
C       2.569240000000000    -19.187600000000000      8.483260000000000
C       3.348740000000000    -19.329039999999999      6.050540000000000
H       1.819570000000000    -20.525939999999999      6.984190000000000
H       1.358040000000000    -18.794020000000000      6.776110000000000
H       3.788170000000000    -18.309729999999998      6.096410000000000
H       4.139130000000000    -20.070029999999999      6.296380000000000
C       2.868450000000000    -19.606529999999999      4.626060000000000
H       1.733920000000000    -19.458369999999999      9.157030000000001
H       2.417350000000000    -20.619920000000000      4.560430000000000
H       2.107250000000000    -18.861059999999998      4.326140000000000
H       3.716360000000000    -19.547670000000000      3.912270000000000
C       8.440099999999999    -17.955780000000001      6.998620000000000
C       7.321990000000000    -18.653440000000000      6.595350000000000
C       6.820810000000000    -19.303410000000000      7.707210000000000
C       7.593940000000000    -18.999700000000001      8.749440000000000
N       8.651190000000000    -18.146519999999999      8.373250000000001
C       7.390620000000000    -19.502420000000001     10.143000000000001
N       6.078260000000000    -19.076070000000001     10.641370000000000
C       5.538260000000000    -19.742480000000000     11.851310000000000
H       6.919180000000000    -18.679800000000000      5.591580000000000
H       9.063660000000000    -17.342340000000000      6.363880000000000
H       5.951230000000000    -19.944649999999999      7.739860000000000
H       7.477910000000000    -20.604040000000001     10.108540000000000
H       8.184720000000000    -19.089469999999999     10.798800000000000
C       6.484760000000000    -19.496089999999999     13.040520000000001
C       4.170410000000000    -19.126400000000000     12.174130000000000
C       5.338320000000000    -21.265039999999999     11.650610000000000
H       6.633040000000000    -18.404340000000001     13.186730000000001
H       6.067620000000000    -19.926060000000000     13.976139999999999
H       7.474850000000000    -19.965669999999999     12.863590000000000
H       3.458780000000000    -19.304210000000001     11.339890000000000
H       3.739010000000000    -19.579930000000001     13.094560000000000
H       4.268840000000000    -18.033930000000002     12.334970000000000
H       4.639360000000000    -21.468699999999998     10.811790000000000
H       6.291300000000000    -21.795800000000000     11.457860000000000
H       4.913350000000000    -21.720530000000000     12.573190000000000

-C 0
6-31g(d,p)
****
-H 0
6-31g(d,p)
****
-Mg 0
6-31g(d,p)
****
-N 0
6-31+g(d,p)
****
-Na 0
6-31g(d,p)
****
-O 0
6-31+g(d,p)
****


