%chk=lowest10_c2_a1_speciation0_speciation3_speciationDFT45_rank01_E180.49.chk
%nprocshared=20
%mem=40GB
#p opt=loose PM7/gen scf=xqc 

lowest10_c2_a1_speciation0_speciation3_speciationDFT45_rank01_E180.49 DFT input

0 1
Na     -0.360660000000000     -0.031930000000000      0.125200000000000
C       0.215380000000000      3.016730000000000      0.670220000000000
C      -2.004640000000000      2.549400000000000      1.283400000000000
O      -0.881020000000000      2.135890000000000      0.536720000000000
C       1.098100000000000      2.625550000000000      1.851440000000000
C      -2.914220000000000      3.415280000000000      0.422610000000000
H       0.823720000000000      2.931590000000000     -0.253920000000000
H      -0.096860000000000      4.081480000000000      0.737770000000000
H      -2.565650000000000      1.637710000000000      1.583590000000000
H      -1.731500000000000      3.068550000000000      2.229090000000000
H      -3.215880000000000      2.857730000000000     -0.489840000000000
H      -3.823290000000000      3.687680000000000      0.997170000000000
H      -2.386630000000000      4.343150000000000      0.120550000000000
H       1.440310000000000      1.575310000000000      1.745700000000000
H       1.988460000000000      3.288140000000000      1.878840000000000
H       0.545570000000000      2.732060000000000      2.807020000000000
C      -0.981500000000000     -3.086890000000000     -0.645210000000000
C      -2.749740000000000     -1.703360000000000     -1.305510000000000
O      -1.608620000000000     -1.832700000000000     -0.489150000000000
C       0.003370000000000     -3.079900000000000     -1.812390000000000
C      -3.260380000000000     -0.271170000000000     -1.188850000000000
H      -0.399890000000000     -3.277180000000000      0.281600000000000
H      -1.712820000000000     -3.919320000000000     -0.730570000000000
H      -2.511400000000000     -1.888590000000000     -2.374850000000000
H      -3.551520000000000     -2.391500000000000     -0.960950000000000
H      -2.480130000000000      0.445580000000000     -1.524300000000000
H      -4.164250000000000     -0.134340000000000     -1.818100000000000
H      -3.519020000000000     -0.043950000000000     -0.132870000000000
H       0.733560000000000     -2.253070000000000     -1.692650000000000
H       0.556340000000000     -4.042190000000000     -1.834610000000000
H      -0.526190000000000     -2.957860000000000     -2.778350000000000
C       0.190980000000000     -1.619520000000000      2.810950000000000
C       2.301090000000000     -1.354800000000000      1.814470000000000
O       0.906990000000000     -1.182910000000000      1.673390000000000
C      -0.018690000000000     -0.470130000000000      3.790440000000000
C       2.729480000000000     -2.704610000000000      1.252610000000000
H      -0.806330000000000     -1.968510000000000      2.467590000000000
H       0.668350000000000     -2.490260000000000      3.313950000000000
H       2.799300000000000     -0.556270000000000      1.226290000000000
H       2.650590000000000     -1.226860000000000      2.863560000000000
H       2.414330000000000     -2.793970000000000      0.191610000000000
H       3.834160000000000     -2.795510000000000      1.307300000000000
H       2.270130000000000     -3.528830000000000      1.835870000000000
H      -0.551860000000000      0.365950000000000      3.289830000000000
H      -0.630580000000000     -0.821420000000000      4.647680000000000
H       0.955900000000000     -0.102970000000000      4.172970000000000
C       2.479240000000000      0.230020000000000     -1.838410000000000
C       0.525620000000000      1.228500000000000     -2.675240000000000
O       1.114840000000000      0.513390000000000     -1.607180000000000
C       3.363060000000000      1.342220000000000     -1.285190000000000
C      -0.071940000000000      0.273900000000000     -3.701970000000000
H       2.722240000000000     -0.709440000000000     -1.299450000000000
H       2.705310000000000      0.036530000000000     -2.910680000000000
H      -0.298650000000000      1.843670000000000     -2.255270000000000
H       1.229710000000000      1.942560000000000     -3.157780000000000
H      -0.811370000000000     -0.392280000000000     -3.215130000000000
H      -0.585110000000000      0.856110000000000     -4.495600000000000
H       0.720740000000000     -0.346970000000000     -4.166600000000000
H       3.161580000000000      1.490430000000000     -0.203630000000000
H       4.430080000000000      1.065720000000000     -1.415550000000000
H       3.171360000000000      2.294090000000000     -1.821370000000000
Na    -11.625850000000000    -16.228040000000000      0.569320000000000
C      -8.531150000000000    -14.550720000000000      0.115860000000000
C      -9.684630000000000    -14.551500000000001     -1.882600000000000
O      -9.714490000000000    -14.956420000000000     -0.532970000000000
C      -8.597939999999999    -15.002070000000000      1.567260000000000
C     -10.976649999999999    -15.001709999999999     -2.548940000000000
H      -7.639030000000000    -15.026070000000001     -0.351670000000000
H      -8.435090000000001    -13.441580000000000      0.106700000000000
H      -9.624700000000001    -13.442130000000001     -1.963450000000000
H      -8.834709999999999    -15.029059999999999     -2.421430000000000
H     -11.848150000000000    -14.539930000000000     -2.037200000000000
H     -10.981389999999999    -14.696230000000000     -3.616140000000000
H     -11.068750000000000    -16.107389999999999     -2.489230000000000
H      -8.694580000000000    -16.107830000000000      1.616520000000000
H      -7.675640000000000    -14.695570000000000      2.103660000000000
H      -9.476940000000001    -14.541370000000001      2.067110000000000
Mg     -3.946460000000000    -10.678269999999999     -3.169040000000000
H      -4.727010000000000    -10.095240000000000     -6.419030000000000
C      -5.060210000000000     -8.379519999999999     -5.089690000000000
C      -4.989130000000000     -9.874430000000000     -5.365080000000000
C      -3.715380000000000     -7.710810000000000     -5.383950000000000
H      -5.854460000000000     -7.939370000000000     -5.728210000000000
H      -5.326370000000000     -8.221100000000000     -4.021590000000000
H      -2.931750000000000     -8.146520000000001     -4.730570000000000
H      -3.434880000000000     -7.888580000000000     -6.444330000000000
C      -3.780930000000000     -6.207000000000000     -5.138070000000000
H      -5.941320000000000    -10.371969999999999     -5.084620000000000
H      -4.557690000000000     -5.747910000000000     -5.785940000000000
H      -4.020560000000000     -5.996990000000000     -4.073950000000000
H      -2.799240000000000     -5.747470000000000     -5.379420000000000
C      -3.131030000000000     -8.006230000000000     -1.761420000000000
C      -2.023420000000000     -7.336960000000000     -1.271900000000000
C      -0.942520000000000     -8.177289999999999     -1.446290000000000
C      -1.444040000000000     -9.318460000000000     -2.029860000000000
N      -2.768460000000000     -9.216260000000000     -2.219340000000000
C      -0.698450000000000    -10.529940000000000     -2.424900000000000
N      -1.160620000000000    -10.941179999999999     -3.755800000000000
C      -0.305080000000000    -10.635970000000000     -4.904870000000000
H      -2.004970000000000     -6.345280000000000     -0.844550000000000
H      -4.140590000000000     -7.619970000000000     -1.798280000000000
H       0.087170000000000     -7.981150000000000     -1.175050000000000
H      -1.025820000000000    -11.294119999999999     -1.706870000000000
H       0.402100000000000    -10.442600000000001     -2.317680000000000
C       0.844210000000000    -11.656549999999999     -4.966650000000000
C      -1.179680000000000    -10.784290000000000     -6.160160000000000
C       0.231170000000000     -9.192180000000000     -4.856600000000000
H       0.437630000000000    -12.691250000000000     -5.027340000000000
H       1.480700000000000    -11.475390000000001     -5.857790000000000
H       1.481970000000000    -11.593610000000000     -4.061440000000000
H      -2.036420000000000    -10.079359999999999     -6.121540000000000
H      -0.595550000000000    -10.588080000000000     -7.082830000000000
H      -1.598040000000000    -11.804440000000000     -6.230010000000000
H      -0.612160000000000     -8.475390000000001     -4.776940000000000
H       0.906740000000000     -9.033189999999999     -3.992670000000000
H       0.803600000000000     -8.963780000000000     -5.778870000000000
Mg     -1.681370000000000    -13.141299999999999     -2.750440000000000
H      -0.536240000000000    -15.252780000000000     -1.278650000000000
C       0.940090000000000    -13.624330000000000     -1.195580000000000
C      -0.147590000000000    -14.431839999999999     -1.913820000000000
C       0.471660000000000    -13.107340000000001      0.169140000000000
H       1.822430000000000    -14.279420000000000     -1.031820000000000
H       1.250270000000000    -12.779900000000000     -1.848880000000000
H      -0.416960000000000    -12.465570000000000      0.063440000000000
H       0.207710000000000    -13.974019999999999      0.812370000000000
C       1.556530000000000    -12.286590000000000      0.860920000000000
H       0.305830000000000    -14.874730000000000     -2.826960000000000
H       2.475380000000000    -12.893800000000001      1.001500000000000
H       1.800120000000000    -11.384399999999999      0.259440000000000
H       1.191380000000000    -11.957990000000001      1.857400000000000
C      -2.502800000000000    -16.641860000000001     -4.148250000000000
C      -1.899010000000000    -15.879650000000000     -5.122240000000000
C      -2.523430000000000    -14.649130000000000     -5.123600000000000
C      -3.461700000000000    -14.647790000000001     -4.175520000000000
N      -3.505330000000000    -15.891170000000001     -3.509810000000000
C      -4.323410000000000    -13.460920000000000     -3.830440000000000
N      -3.743680000000000    -12.720760000000000     -2.691900000000000
C      -4.415340000000000    -12.861380000000000     -1.384720000000000
H      -1.081630000000000    -16.190339999999999     -5.759840000000000
H      -2.241660000000000    -17.661059999999999     -3.899720000000000
H      -2.272530000000000    -13.820539999999999     -5.761970000000000
H      -5.385380000000000    -13.755990000000001     -3.709740000000000
H      -4.299830000000000    -12.772980000000000     -4.702000000000000
C      -4.531830000000000    -14.332420000000001     -0.953140000000000
C      -3.570140000000000    -12.114500000000000     -0.347350000000000
C      -5.813350000000000    -12.197110000000000     -1.426670000000000
H      -3.526190000000000    -14.803430000000001     -0.922170000000000
H      -4.985750000000000    -14.398080000000000      0.058850000000000
H      -5.180110000000000    -14.905220000000000     -1.646660000000000
H      -3.455990000000000    -11.048640000000001     -0.622910000000000
H      -4.037150000000000    -12.157280000000000      0.658360000000000
H      -2.567970000000000    -12.572710000000001     -0.288480000000000
H      -5.735900000000000    -11.124800000000000     -1.707310000000000
H      -6.493280000000000    -12.686510000000000     -2.151370000000000
H      -6.295990000000000    -12.243720000000000     -0.429010000000000

-C 0
6-31g(d,p)
****
-H 0
6-31g(d,p)
****
-Mg 0
6-31g(d,p)
****
-N 0
6-31+g(d,p)
****
-Na 0
6-31g(d,p)
****
-O 0
6-31+g(d,p)
****


