%chk=speciationDFT41.chk
%nprocshared=32
%mem=64GB
#p opt wb97xd/gen scf=xqc freq 

 speciation study

0 1
C          0.71055        1.26052       -0.16005
C          1.44873       -0.04464        0.23712
C          0.76281       -1.30271       -0.28446
C         -0.69130       -1.31381        0.20405
C         -1.45209       -0.03568       -0.23878
N         -0.74200        1.19900        0.24700
C          1.35665        2.40924        0.60020
C          0.97388        1.58399       -1.65524
C         -1.68210       -0.09060       -1.77347
C         -2.85519       -0.03092        0.37561
H          0.72035        0.80968       -2.37936
H          0.48179        2.52953       -1.93724
H          2.06495        1.72014       -1.82363
H          2.45470        2.46388        0.42233
H          0.91744        3.37175        0.32428
H          1.15135        2.25575        1.65016
H         -2.78214       -0.07513        1.46493
H         -3.40909        0.88660        0.07814
H         -3.44160       -0.91935        0.05251
H         -2.44749       -0.85517       -2.03000
H         -2.00480        0.88533       -2.14795
H         -0.83489       -0.43438       -2.37285
H         -1.20658       -2.23132       -0.15596
H          0.83366       -1.35233       -1.38643
H          2.51298       -0.02126       -0.08651
H          1.44570       -0.12558        1.32498
H          1.29049       -2.19839        0.11078
H         -0.65392       -1.35952        1.30482
Li        -0.75479        1.22855        2.23674
C         -1.24922        5.12995        6.53789
C         -1.90981        4.57845        7.77365
C         -3.37437        4.77896        7.47529
C         -3.38579        4.97152        5.95867
O         -2.08290        4.74667        5.46933
H         -1.17210        6.24157        6.55923
H         -0.22256        4.72266        6.42876
H         -1.71954        3.48492        7.75333
H         -1.55181        4.98499        8.74519
H         -4.16617        4.38606        5.43487
H         -3.60528        6.04709        5.74705
H         -3.94006        3.88105        7.80613
H         -3.78575        5.69335        7.95758
C          0.58414        1.18599        4.90605
C          0.45631        1.16298        6.45091
C         -0.47255        0.06052        6.93145
C         -1.84375        0.32195        6.32558
C         -1.81764        0.33175        4.76969
N         -0.76758        1.25810        4.22648
C          1.39290        2.45990        4.58626
C          1.44453       -0.01308        4.44213
C         -1.67611       -1.11343        4.23635
C         -3.19338        0.85212        4.31838
H          1.11251       -0.99842        4.78442
H          1.50537       -0.02819        3.35474
H          2.48134        0.07351        4.83259
H          2.35949        2.46347        5.13703
H          1.67213        2.53726        3.54109
H          0.83051        3.37272        4.85931
H         -3.38556        1.86473        4.72756
H         -3.25664        0.93661        3.22522
H         -4.00506        0.17509        4.66788
H         -2.53233       -1.73635        4.57260
H         -1.67771       -1.11656        3.14049
H         -0.79318       -1.65626        4.58631
H         -2.57043       -0.43162        6.70200
H         -0.09085       -0.94501        6.66479
H          1.45840        1.04229        6.92156
H          0.04338        2.13317        6.80282
H         -0.54197        0.10272        8.04006
H         -2.17895        1.31631        6.69501
Li        -1.73783        2.77651       -0.44572
C         -2.95600        4.37765       -2.61968
C         -3.67966        5.67865       -3.05905
C         -3.01638        6.94052       -2.50931
C         -3.00319        6.84099       -0.97393
C         -2.20782        5.59772       -0.50495
N         -2.73367        4.35403       -1.13845
C         -3.88654        3.21225       -2.99785
C         -1.64479        4.16322       -3.41681
C         -0.69428        5.82251       -0.75537
C         -2.38384        5.43258        1.01264
H         -0.89877        4.95803       -3.31984
H         -1.18151        3.20297       -3.12962
H         -1.85643        4.10969       -4.50576
H         -4.05813        3.18578       -4.09814
H         -3.45808        2.24644       -2.70669
H         -4.86546        3.30233       -2.48676
H         -3.45405        5.27486        1.26685
H         -1.80713        4.55190        1.37198
H         -2.02214        6.33251        1.55753
H         -0.30452        6.62413       -0.09201
H         -0.13951        4.90267       -0.55862
H         -0.42422        6.16760       -1.75834
H         -2.57049        7.77095       -0.54124
H         -2.00797        7.06937       -2.93002
H         -3.74315        5.73444       -4.17046
H         -4.71776        5.66806       -2.66574
H         -3.61482        7.82518       -2.81347
H         -4.05498        6.76128       -0.62725
Li        -1.43360        3.02458        4.85581

-H 0
6-31g(d,p)
****
-Li 0
6-31g(d,p)
****
-C 0
6-31g(d,p)
****
-N 0
6-31+g(d,p)
****
-O 0
6-31+g(d,p)
****


