%chk=speciationDFT55.chk
%nprocshared=32
%mem=64GB
#p opt wb97xd/gen scf=xqc freq 

 speciation study

0 1
C          0.70782        1.22850       -0.25217
C          1.43352       -0.10975        0.05942
C          0.70078       -1.34680       -0.45365
C         -0.76265       -1.32974        0.01435
C         -1.48128       -0.00010       -0.34759
N         -0.74200        1.19900        0.24700
C          1.46876        2.35969        0.44429
C          0.92520        1.54274       -1.76410
C         -1.67015       -0.01712       -1.89610
C         -2.90964        0.02132        0.19278
H          0.63360        0.78768       -2.49449
H          0.49473        2.51307       -2.03072
H          2.01555        1.60905       -1.98270
H          2.54064        2.36776        0.13427
H          1.04306        3.34523        0.18752
H          1.43096        2.22100        1.51994
H         -2.88471       -0.04736        1.26873
H         -3.43166        0.95528       -0.11592
H         -3.49982       -0.84998       -0.16787
H         -2.50646       -0.68979       -2.19005
H         -1.83273        0.98381       -2.29567
H         -0.87352       -0.50056       -2.47235
H         -1.30211       -2.21050       -0.39583
H          0.78375       -1.39472       -1.55140
H          2.48132       -0.11063       -0.31514
H          1.50898       -0.21660        1.11843
H          1.20225       -2.26198       -0.06388
H         -0.73814       -1.45905        1.07928
Li        -0.75479        1.22855        2.23674
C         -1.57140        4.48861        7.43146
C         -0.16568        4.98166        7.73028
C          0.30005        4.02779        8.76358
C         -0.59632        2.83192        8.44857
O         -1.39631        3.11286        7.27139
H         -2.28451        4.70485        8.26072
H         -2.03103        4.90425        6.51935
H          0.46188        4.71034        6.86454
H         -0.02673        6.05913        7.96272
H         -0.05674        1.87398        8.54881
H         -1.30851        2.71980        9.29443
H          1.39635        3.85052        8.63219
H          0.08716        4.39913        9.78572
C         -0.02129        6.04589        4.93132
C         -0.24016        6.97585        3.77142
C         -0.62060        6.00262        2.75040
C          0.09752        4.76050        3.11230
O         -0.11532        4.66919        4.49570
H          1.00209        6.23353        5.32724
H         -0.77991        6.31244        5.66487
H         -1.06885        7.71003        3.92284
H          0.70014        7.49517        3.49423
H         -0.29827        3.87600        2.56819
H          1.19419        4.84142        2.90440
H         -1.68016        5.76954        2.98736
H         -0.42154        6.37937        1.74368
C          0.66962        0.98471        4.74117
C          0.69064        0.69565        6.24531
C         -0.22911       -0.43186        6.71176
C         -1.63207       -0.16047        6.19427
C         -1.63112        0.05225        4.65987
N         -0.76758        1.25810        4.22648
C          1.58971        2.20205        4.55851
C          1.44538       -0.19125        4.07906
C         -1.31993       -1.31712        3.98690
C         -3.03745        0.30867        4.26444
H          1.26137       -1.19995        4.45370
H          1.27070       -0.16920        3.03055
H          2.53847       -0.13453        4.27733
H          2.61411        1.99170        4.94507
H          1.70056        2.49154        3.51598
H          1.25119        3.04111        5.17152
H         -3.26260        1.23230        4.73810
H         -3.11222        0.39955        3.19178
H         -3.73945       -0.48683        4.61064
H         -2.17468       -2.02859        4.04196
H         -1.08898       -1.12550        2.95967
H         -0.54840       -1.95130        4.42758
H         -2.28943       -1.01635        6.48014
H          0.15053       -1.41054        6.36963
H          1.71524        0.50782        6.63897
H          0.33623        1.61912        6.63083
H         -0.25237       -0.49663        7.82199
H         -2.02912        0.74441        6.69529
Li        -1.73783        2.77651       -0.44572
C         -4.45814        3.20986        5.45366
C         -5.46231        2.40836        4.59904
C         -5.02786        2.70857        3.18468
C         -3.87536        3.69858        3.35322
O         -3.33550        3.55783        4.66010
H         -4.95253        4.15670        5.75685
H         -4.18584        2.65163        6.37549
H         -5.37153        1.30998        4.75760
H         -6.52758        2.61343        4.82722
H         -3.12252        3.50660        2.57895
H         -4.27664        4.73460        3.27488
H         -4.64104        1.77456        2.72756
H         -5.82771        3.04950        2.49469
C         -2.97799        4.27943       -2.63283
C         -3.71119        5.53445       -3.19914
C         -3.03142        6.83384       -2.81136
C         -3.06330        6.88480       -1.30229
C         -2.30877        5.68368       -0.66350
N         -2.73367        4.35403       -1.13845
C         -3.89097        3.09109       -2.94553
C         -1.67797        4.05240       -3.43373
C         -0.77152        5.88037       -0.81088
C         -2.74105        5.66806        0.76212
H         -0.94103        4.87642       -3.42277
H         -1.17444        3.13012       -3.12171
H         -1.89357        3.93790       -4.52503
H         -4.04926        2.99853       -4.04662
H         -3.47164        2.14683       -2.59356
H         -4.87893        3.20756       -2.45673
H         -3.81425        5.46204        0.86638
H         -2.18595        4.81374        1.20469
H         -2.54246        6.66176        1.22444
H         -0.44159        6.81916       -0.32939
H         -0.22843        5.02312       -0.38285
H         -0.42805        6.01808       -1.84086
H         -2.62921        7.84429       -0.93883
H         -1.99971        6.90730       -3.20905
H         -3.78220        5.47705       -4.31281
H         -4.74754        5.56316       -2.80790
H         -3.60771        7.69485       -3.21349
H         -4.13160        6.87262       -0.99198
Li        -1.38717        3.14191        5.16729

-H 0
6-31g(d,p)
****
-Li 0
6-31g(d,p)
****
-C 0
6-31g(d,p)
****
-N 0
6-31+g(d,p)
****
-O 0
6-31+g(d,p)
****


