%chk=speciationDFT79.chk
%nprocshared=32
%mem=64GB
#p opt wb97xd/gen scf=xqc freq 

 speciation study

0 1
C         -1.12828       -1.39321        0.79660
C         -2.54776       -1.52320        0.12667
C         -3.45745       -0.34533        0.51809
C         -2.78964        0.94024        0.08244
C         -1.32144        1.14970        0.60105
N         -0.43598       -0.09524        0.42103
C         -1.38784       -1.52891        2.30130
C         -0.17421       -2.60212        0.54372
C         -1.34646        1.62453        2.08059
C         -0.77066        2.30235       -0.24665
H          0.34230       -2.71711       -0.38771
H          0.68973       -2.51764        1.19352
H         -0.67355       -3.57088        0.75885
H         -1.67700       -2.56691        2.57399
H         -0.47416       -1.24660        2.76931
H         -2.15761       -0.93172        2.77948
H         -1.51490        2.79314       -0.91320
H         -0.36710        3.14087        0.36671
H         -0.01161        1.88892       -0.91352
H         -0.34920        1.63824        2.54153
H         -1.75910        2.65817        2.14761
H         -1.99417        1.05552        2.74471
H         -2.83388        0.90994       -1.02181
H         -4.43902       -0.44229        0.00523
H         -3.03085       -2.47400        0.42778
H         -2.55139       -1.50792       -0.96935
H         -3.69386       -0.31136        1.59284
H         -3.42291        1.81913        0.36621
Li         1.25207       -0.01399       -1.00023
C          2.37465       -2.47748        3.11056
C          1.32757       -3.13184        3.96367
C          0.82888       -1.99425        4.80381
C          1.43767       -0.75090        4.11890
O          1.87169       -1.18383        2.81762
H          3.34273       -2.39666        3.63792
H          2.55337       -3.11329        2.18877
H          0.51576       -3.44473        3.27028
H          1.64867       -4.05372        4.51014
H          0.74869        0.10416        4.09509
H          2.34842       -0.44895        4.68562
H         -0.28226       -2.01600        4.78134
H          1.14651       -2.02928        5.87286
C          4.09361        0.51156       -6.21309
C          3.39206       -0.09903       -7.41804
C          3.56312       -1.58418       -7.19963
C          4.41762       -1.65986       -5.94634
O          4.18606       -0.47841       -5.21200
H          5.13621        0.78029       -6.50001
H          3.60575        1.44438       -5.86330
H          2.30805        0.12940       -7.38853
H          3.79501        0.28972       -8.37605
H          4.22157       -2.57997       -5.35651
H          5.49507       -1.67091       -6.23059
H          2.56229       -1.99027       -6.96733
H          3.96012       -2.16174       -8.06026
C          3.49995        2.43666       -0.53409
C          2.33687        3.09992        0.13213
C          2.09073        2.29149        1.46984
C          3.27319        1.28879        1.94312
C          3.86869        0.37557        0.76231
N          3.21538        0.91398       -0.40142
C          4.68587        3.24256        0.21180
C          3.74641        2.75753       -2.01629
C          5.44333        0.30417        0.77079
C          3.57474       -1.14730        0.63052
H          4.72020        2.31028       -2.32749
H          2.98580        2.33163       -2.66011
H          3.79699        3.85249       -2.21254
H          5.74124        2.99181        0.12339
H          4.73770        4.26591       -0.22341
H          4.48136        3.54699        1.26396
H          4.06748       -1.70873        1.44177
H          2.55096       -1.49644        0.45636
H          4.03871       -1.52748       -0.31014
H          5.76243       -0.11117        1.75280
H          5.84498       -0.36447       -0.02274
H          6.06833        1.16843        0.66612
H          3.03234        0.73749        2.84285
H          1.69693        2.95713        2.26195
H          2.47209        4.19356        0.31267
H          1.52843        3.12766       -0.58869
H          1.26312        1.66043        1.19962
H          4.08825        1.90086        2.35311
Li         1.58669       -0.09563        0.98455
C          0.07621        0.27938       -3.81075
C         -0.10292       -0.14068       -5.29719
C         -0.60927       -1.56123       -5.46016
C          0.39787       -2.48146       -4.76364
C          0.58884       -2.12529       -3.26563
N          0.93496       -0.67678       -3.01293
C          0.76975        1.64592       -3.85019
C         -1.29932        0.48982       -3.17256
C         -0.70778       -2.52717       -2.56781
C          1.76016       -2.96913       -2.74281
H         -2.01052       -0.33571       -3.27560
H         -1.11944        0.61627       -2.11755
H         -1.81947        1.37777       -3.59319
H          0.17661        2.38140       -4.43740
H          0.88987        2.05608       -2.83814
H          1.76069        1.55280       -4.33912
H          2.67518       -2.76464       -3.34234
H          2.01833       -2.74671       -1.69590
H          1.53873       -4.06015       -2.84130
H         -0.73710       -3.60711       -2.30174
H         -0.76147       -1.83932       -1.75127
H         -1.64633       -2.36266       -3.10944
H          0.07284       -3.54159       -4.88224
H         -1.63972       -1.65953       -5.07189
H         -0.79273        0.55790       -5.82331
H          0.87432       -0.09179       -5.80107
H         -0.67155       -1.82133       -6.53897
H          1.36490       -2.37594       -5.27551
Li         2.58119       -0.57633       -4.12645

-H 0
6-31g(d,p)
****
-Li 0
6-31g(d,p)
****
-C 0
6-31g(d,p)
****
-N 0
6-31+g(d,p)
****
-O 0
6-31+g(d,p)
****


