%chk=speciationDFT45.chk
%nprocshared=32
%mem=64GB
#p opt wb97xd/gen scf=xqc freq 

 speciation study

0 1
C          0.81181        1.08504        0.16590
C          1.45952       -0.28987        0.56334
C          0.78626       -1.48256       -0.06232
C         -0.61718       -1.44434        0.50666
C         -1.41733       -0.18705        0.03990
N         -0.74200        1.19900        0.24700
C          1.42563        2.08758        1.11667
C          1.43596        1.47469       -1.14553
C         -1.93495       -0.53124       -1.37568
C         -2.64264       -0.19385        0.88281
H          1.60273        0.62289       -1.82370
H          0.83468        2.34273       -1.46031
H          2.50749        1.77210       -1.05172
H          2.53081        1.97872        1.21081
H          1.26395        3.10807        0.76014
H          0.97496        1.89074        2.07256
H         -2.33644       -0.04654        1.90653
H         -3.19199        0.65369        0.56328
H         -3.24840       -1.12719        0.79564
H         -2.69222       -1.34840       -1.35415
H         -2.41148        0.33014       -1.88396
H         -1.17994       -1.09046       -1.94803
H         -1.14593       -2.38810        0.23398
H          0.83397       -1.47695       -1.16451
H          2.54993       -0.30881        0.33053
H          1.39139       -0.47118        1.62990
H          1.29569       -2.40606        0.29518
H         -0.51252       -1.47600        1.60024
Li        -0.75479        1.22855        2.23674
C         -4.18515        3.57570        1.08098
C         -4.83537        2.54899        1.99691
C         -5.47498        1.55245        1.04819
C         -4.93894        2.02424       -0.32386
O         -3.78800        2.84999       -0.12281
H         -4.91956        4.34442        0.78574
H         -3.34396        4.00730        1.55443
H         -5.48276        2.93739        2.80867
H         -3.97364        2.06003        2.45591
H         -5.71519        2.63514       -0.80087
H         -4.73201        1.14867       -1.02177
H         -5.15667        0.54236        1.37752
H         -6.58605        1.53706        1.06774
C         -0.36754        4.78928        1.39368
C         -1.20832        5.79790        2.13158
C         -1.63510        6.72020        1.03454
C         -1.33930        5.92353       -0.24869
O         -0.90941        4.60362        0.07888
H          0.66102        5.21103        1.28584
H         -0.32884        3.86555        2.00106
H         -2.08986        5.27309        2.51825
H         -0.74440        6.28418        3.01767
H         -2.23885        5.95030       -0.89111
H         -0.48601        6.42223       -0.76877
H         -2.71462        6.96092        1.16518
H         -1.04064        7.66149        1.03466
C          0.61650        1.31411        4.90961
C          0.51346        1.31159        6.47141
C         -0.30061        0.16232        7.00753
C         -1.69243        0.33012        6.44608
C         -1.72160        0.25700        4.89267
N         -0.76758        1.25810        4.22648
C          1.36454        2.64915        4.63589
C          1.55986        0.17448        4.48806
C         -1.48773       -1.22580        4.47620
C         -3.18843        0.56682        4.55145
H          1.25016       -0.84391        4.73619
H          1.75333        0.24352        3.43138
H          2.55862        0.27841        4.96763
H          2.32319        2.66022        5.20582
H          1.70865        2.84397        3.62280
H          0.76539        3.52340        4.95202
H         -3.45044        1.61669        4.80195
H         -3.44953        0.35640        3.52212
H         -3.87798       -0.09415        5.12153
H         -2.28661       -1.87640        4.88678
H         -1.52682       -1.34435        3.39694
H         -0.56980       -1.69138        4.83994
H         -2.34885       -0.45118        6.89145
H          0.13683       -0.82290        6.75776
H          1.53494        1.24801        6.92217
H          0.05428        2.24467        6.82172
H         -0.35000        0.23741        8.12090
H         -2.08728        1.31495        6.78706
Li        -1.74748        2.81642       -0.74310
C         -0.41403        1.87453       -4.07578
C         -0.84858        1.69200       -5.55868
C         -1.31443        2.97985       -6.15517
C         -2.54269        3.36060       -5.35341
C         -2.25954        3.59007       -3.82978
N         -1.48660        2.51352       -3.15092
C         -0.21977        0.43747       -3.66354
C          0.97997        2.60602       -4.13487
C         -1.53499        4.91957       -3.63419
C         -3.63806        3.65500       -3.17253
H          0.95438        3.58911       -4.60533
H          1.56260        2.77441       -3.23464
H          1.67842        1.99586       -4.75685
H          0.65637       -0.06794       -4.12228
H         -0.14482        0.47817       -2.61459
H         -1.12028       -0.17486       -3.88137
H         -4.15456        2.67115       -3.27289
H         -3.53818        3.90742       -2.11038
H         -4.27599        4.43012       -3.64732
H         -2.14875        5.76716       -4.00082
H         -1.32814        5.03572       -2.57175
H         -0.56222        4.96386       -4.13588
H         -2.99990        4.26789       -5.80209
H         -0.53393        3.76242       -6.14478
H         -0.01161        1.26263       -6.16164
H         -1.68759        0.95798       -5.65123
H         -1.58944        2.79868       -7.21482
H         -3.27765        2.53300       -5.47742
Li        -1.54110        2.97176        4.75143

-H 0
6-31g(d,p)
****
-Li 0
6-31g(d,p)
****
-C 0
6-31g(d,p)
****
-N 0
6-31+g(d,p)
****
-O 0
6-31+g(d,p)
****


