%chk=speciationDFT71.chk
%nprocshared=32
%mem=64GB
#p opt wb97xd/gen scf=xqc freq 

 speciation study

0 1
C         -1.31309        2.36396       -1.34962
C         -0.38501        3.59633       -1.20770
C          0.96890        3.46587       -1.88034
C          1.62169        2.19526       -1.35172
C          0.67911        0.98661       -1.56770
N         -0.64536        1.11001       -0.86222
C         -2.46800        2.55524       -0.45265
C         -1.93882        2.32376       -2.77626
C          0.60777        0.67458       -3.08622
C          1.27201       -0.17237       -0.95063
H         -1.27646        2.46079       -3.62527
H         -2.53794        1.40200       -2.91245
H         -2.62030        3.19299       -2.90974
H         -3.07136        3.46999       -0.67401
H         -3.05068        1.64403       -0.66642
H         -2.10884        2.62035        0.59092
H          1.14151        0.05240        0.10324
H          0.61235       -1.01225       -1.20462
H          2.33065       -0.33700       -1.24846
H          1.60505        0.37785       -3.46686
H         -0.13502       -0.11558       -3.26439
H          0.42248        1.50823       -3.75707
H          2.59858        2.03790       -1.86317
H          0.84997        3.46224       -2.98005
H         -0.88442        4.54794       -1.47759
H         -0.13592        3.59427       -0.18130
H          1.61580        4.33243       -1.62124
H          1.83426        2.32349       -0.26681
Li        -0.54567        1.21824        1.64663
C          1.02082        3.24576        3.41406
C          0.19881        4.26187        4.19225
C          0.08555        5.32747        3.18013
C         -0.01371        4.49192        1.91542
O          0.40597        3.12402        2.16917
H          2.07463        3.59261        3.28263
H          1.04607        2.25270        3.89586
H          0.60236        4.65641        5.14871
H         -0.81190        3.83352        4.35564
H         -1.05596        4.49430        1.58551
H          0.68867        4.95911        1.17340
H         -0.77204        6.01147        3.34805
H          1.03578        5.91220        3.17562
C         -4.01087        1.41328        1.88098
C         -4.59537        2.57292        2.65601
C         -3.80045        2.49395        3.93860
C         -2.97336        1.22094        3.75980
O         -2.67326        1.18011        2.37192
H         -4.64155        0.52625        2.07880
H         -4.24495        1.57410        0.84520
H         -4.38091        3.54457        2.15220
H         -5.69804        2.44025        2.74631
H         -2.09248        1.16366        4.41631
H         -3.61017        0.33145        4.03085
H         -3.07329        3.33003        3.91439
H         -4.42044        2.56737        4.85637
C          2.24757       -0.71231        2.80930
C          2.77870       -2.15210        3.09187
C          2.05943       -3.28864        2.41086
C          0.62543       -3.19531        2.89997
C         -0.04310       -1.83231        2.49895
N          0.70102       -0.57715        2.93433
C          2.89759        0.25808        3.80551
C          2.95873       -0.35366        1.49454
C         -0.30107       -1.86594        1.03005
C         -1.38409       -1.82446        3.11181
H          2.80154       -1.12820        0.72963
H          2.75319        0.69499        1.19326
H          4.06407       -0.37393        1.62362
H          3.97446        0.04010        3.96524
H          2.86751        1.29659        3.43151
H          2.39883        0.19368        4.76619
H         -1.08796       -1.68701        4.12947
H         -1.99666       -0.99143        2.78168
H         -1.93925       -2.77607        2.93378
H         -0.84199       -2.78303        0.70192
H         -0.85645       -0.96884        0.70442
H          0.68922       -1.90015        0.65501
H          0.05523       -4.06283        2.49631
H          2.17096       -3.26705        1.31224
H          3.87808       -2.24900        2.93097
H          2.58212       -2.35286        4.08939
H          2.49183       -4.26069        2.74181
H          0.61810       -3.31771        4.00824
Li        -1.66457       -0.89714       -1.28680
C         -4.19923       -1.95807        0.41997
C         -5.33025       -2.66621       -0.31360
C         -5.74959       -1.65817       -1.36975
C         -4.73032       -0.52424       -1.19923
O         -3.59438       -1.03434       -0.48901
H         -4.66511       -1.39676        1.24942
H         -3.47800       -2.66772        0.87986
H         -4.90665       -3.55571       -0.82261
H         -6.16038       -3.05920        0.31804
H         -4.47273       -0.03519       -2.15876
H         -5.21577        0.24145       -0.56163
H         -5.66847       -2.13164       -2.36947
H         -6.79278       -1.28410       -1.27473
C          2.00290        1.02766        7.53279
C          1.34836        2.00532        8.52341
C          0.22771        2.61760        7.71068
C          0.56062        2.13206        6.35347
O          1.09080        0.86598        6.46254
H          2.92607        1.50241        7.11596
H          2.30668        0.08887        8.03227
H          0.87734        1.47656        9.37790
H          2.08824        2.74908        8.89547
H         -0.34749        2.13241        5.68913
H          1.36650        2.79776        5.94364
H         -0.72806        2.12739        7.98986
H          0.11551        3.72537        7.78758
C          0.39305       -3.36544       -2.74774
C          0.32588       -4.63583       -3.61865
C         -0.34962       -4.34368       -4.94575
C         -1.77963       -4.05629       -4.60592
C         -2.00393       -2.90986       -3.55801
N         -0.97066       -2.72799       -2.48010
C          1.05595       -3.82652       -1.43747
C          1.37167       -2.41305       -3.47298
C         -2.24481       -1.54431       -4.21465
C         -3.30324       -3.32352       -2.89600
H          0.92242       -1.92616       -4.35729
H          1.76625       -1.65294       -2.83003
H          2.29751       -2.94227       -3.77936
H          2.01604       -4.35195       -1.62410
H          1.36495       -2.98120       -0.84819
H          0.38605       -4.49140       -0.85000
H         -3.22495       -4.31442       -2.39437
H         -3.48806       -2.59310       -2.13842
H         -4.14374       -3.36367       -3.62606
H         -3.10677       -1.57765       -4.91536
H         -2.50446       -0.81199       -3.41945
H         -1.35620       -1.18631       -4.76279
H         -2.39864       -3.89519       -5.51451
H          0.11941       -3.51947       -5.51478
H          1.35542       -5.01399       -3.81313
H         -0.20745       -5.45205       -3.07869
H         -0.30158       -5.24992       -5.58466
H         -2.12935       -5.02948       -4.18599
Li         0.52215       -0.76248        5.40304
C         -1.46334       -0.88147        7.61638
C         -1.85804       -2.22618        8.28289
C         -2.00655       -3.14543        7.09872
C         -2.41966       -2.14342        6.08393
O         -1.46490       -1.07610        6.20984
H         -2.23385       -0.11573        7.86851
H         -0.48780       -0.51016        7.97869
H         -1.16220       -2.62241        9.05106
H         -2.86000       -2.10875        8.74422
H         -2.53472       -2.65167        5.12047
H         -3.44563       -1.74735        6.28677
H         -1.04332       -3.54571        6.72782
H         -2.69445       -4.00230        7.25006
C          1.45029       -2.94559        7.28273
C          2.52086       -2.93030        8.36752
C          3.76921       -2.50626        7.64339
C          3.28616       -2.35164        6.23367
O          1.87560       -2.11494        6.24552
H          1.29733       -3.97052        6.87350
H          0.55693       -2.55637        7.74049
H          2.28588       -2.11663        9.08548
H          2.58384       -3.89536        8.91113
H          3.87749       -1.58067        5.70140
H          3.45850       -3.33894        5.73115
H          4.07845       -1.50626        8.01494
H          4.62432       -3.21617        7.70576

-H 0
6-31g(d,p)
****
-Li 0
6-31g(d,p)
****
-C 0
6-31g(d,p)
****
-N 0
6-31+g(d,p)
****
-O 0
6-31+g(d,p)
****


