%chk=speciationDFT30.chk
%nprocshared=32
%mem=64GB
#p opt wb97xd/gen scf=xqc freq 

 speciation study

0 1
C          0.94158        1.39726       -1.15596
C          1.76491        0.17347       -0.72768
C          1.26424       -1.13933       -1.39899
C         -0.25915       -1.36903       -1.23987
C         -1.06475       -0.04596       -1.32481
N         -0.43569        1.15962       -0.60381
C          1.45887        2.70439       -0.55765
C          1.12633        1.63498       -2.70452
C         -1.30999        0.07649       -2.83085
C         -2.38922       -0.20450       -0.69408
H          1.06089        0.76560       -3.35933
H          0.45793        2.42792       -3.09909
H          2.17266        1.92946       -2.92610
H          2.50548        2.90302       -0.88024
H          0.83444        3.55180       -0.92253
H          1.41153        2.66893        0.53294
H         -2.16072       -0.07602        0.37152
H         -3.04767        0.60828       -0.99900
H         -2.89283       -1.16028       -0.94153
H         -2.17939       -0.55484       -3.13635
H         -1.39181        1.13350       -3.06163
H         -0.54512       -0.38892       -3.48044
H         -0.57615       -2.13787       -1.97559
H          1.49363       -1.09600       -2.47430
H          2.84415        0.31536       -0.94411
H          1.58096        0.10589        0.34374
H          1.82899       -2.03111       -1.05261
H         -0.65567       -1.95456       -0.43858
Li        -0.30880        1.09401        2.07340
C          1.59723        3.82091        3.04576
C          2.47698        3.78642        4.30028
C          1.53679        3.26819        5.35823
C          0.29843        2.79683        4.55015
O          0.55578        2.82907        3.13680
H          1.10929        4.82092        3.02800
H          2.24772        3.73840        2.15792
H          3.30356        3.06728        4.13461
H          3.03036        4.71091        4.57802
H         -0.03402        1.79754        4.90049
H         -0.50053        3.53241        4.77665
H          1.26186        4.03978        6.10942
H          2.03643        2.46222        5.94482
C         -2.75515        5.64355       -0.37705
C         -3.37873        6.32693       -1.57192
C         -2.29259        6.20275       -2.62083
C         -1.21547        5.37314       -1.92494
O         -1.83846        4.66292       -0.88104
H         -2.17375        6.39814        0.20293
H         -3.52970        5.31497        0.33007
H         -4.24210        5.71093       -1.87397
H         -3.77437        7.35036       -1.38805
H         -0.67506        4.71402       -2.62958
H         -0.47051        6.05515       -1.45198
H         -2.70054        5.63935       -3.48160
H         -1.89245        7.17298       -2.98414
C         -3.68712       -0.05066        3.00027
C         -5.13388        0.35773        3.43492
C         -5.73008        1.46085        2.64599
C         -4.83044        2.62828        2.94274
C         -3.35165        2.42546        2.44147
N         -2.63381        1.16592        2.88902
C         -3.39083       -1.09442        4.12927
C         -3.91245       -0.93220        1.74050
C         -3.37367        2.47137        0.93709
C         -2.62137        3.66145        2.97188
H         -4.33915       -0.38765        0.88542
H         -3.00666       -1.52644        1.49855
H         -4.66187       -1.73342        1.92602
H         -4.30272       -1.60382        4.52225
H         -2.99859       -2.04444        3.75435
H         -2.85062       -0.66692        4.98497
H         -2.64071        3.65526        4.08514
H         -1.59043        3.70238        2.59820
H         -3.13300        4.59571        2.64387
H         -3.90414        3.35805        0.60313
H         -2.33942        2.45184        0.56741
H         -3.97090        1.66089        0.52696
H         -5.29345        3.52589        2.47660
H         -5.82642        1.21041        1.57016
H         -5.84104       -0.50787        3.37669
H         -5.13084        0.65854        4.49436
H         -6.75974        1.65427        3.02504
H         -4.85508        2.80895        4.04586
Li        -1.91530        2.67963       -1.30301
C         -3.74518        1.64879       -3.76521
C         -4.52492        2.63789       -4.59368
C         -5.12575        3.53790       -3.54088
C         -4.76699        2.85155       -2.23991
O         -3.51170        2.27121       -2.50351
H         -4.35161        0.72621       -3.57796
H         -2.88431        1.34596       -4.38130
H         -3.81346        3.24344       -5.20470
H         -5.23866        2.10338       -5.25221
H         -4.75749        3.55907       -1.39615
H         -5.50241        2.04667       -1.99056
H         -4.51262        4.45023       -3.57093
H         -6.17872        3.84298       -3.68991
C         -2.62624        0.55392        7.49836
C         -4.03452       -0.00859        7.61058
C         -4.90738        1.21389        7.43937
C         -3.90663        2.33950        7.22532
O         -2.70209        1.76187        6.77297
H         -2.24581        0.80484        8.51382
H         -1.90934       -0.17002        7.05772
H         -4.23802       -0.68184        6.75327
H         -4.18993       -0.58481        8.54638
H         -4.29481        3.12270        6.54098
H         -3.69213        2.82663        8.20360
H         -5.49689        1.07871        6.51547
H         -5.63084        1.40672        8.25787
C          2.65735       -0.51058        3.34590
C          3.39890       -1.82144        3.83953
C          2.96358       -3.03688        3.06565
C          1.50687       -3.20285        3.42381
C          0.65835       -1.97325        2.94686
N          1.14786       -0.59598        3.15028
C          2.88021        0.47480        4.43566
C          3.35098       -0.00976        2.07384
C          0.46108       -2.08073        1.52573
C         -0.65351       -2.09561        3.63962
H          3.31677       -0.74360        1.25945
H          2.93895        0.98077        1.77151
H          4.43866        0.16699        2.27285
H          3.94350        0.72305        4.59033
H          2.32739        1.31152        4.06485
H          2.41661        0.15207        5.39161
H         -0.56062       -2.06420        4.73726
H         -1.17945       -1.19512        3.28650
H         -1.16085       -3.04696        3.32869
H         -0.01623       -3.04468        1.24604
H         -0.16213       -1.18414        1.29733
H          1.43290       -1.99788        1.03416
H          1.10917       -4.14337        2.96674
H          3.14693       -2.93474        1.97476
H          4.49057       -1.67343        3.77422
H          3.15835       -2.00387        4.90907
H          3.52337       -3.92262        3.41634
H          1.42826       -3.34033        4.51828
Li        -2.66838        1.46769        4.85570

-H 0
6-31g(d,p)
****
-Li 0
6-31g(d,p)
****
-C 0
6-31g(d,p)
****
-N 0
6-31+g(d,p)
****
-O 0
6-31+g(d,p)
****


