%chk=speciationDFT107.chk
%nprocshared=32
%mem=64GB
#p opt wb97xd/gen scf=xqc freq 

 speciation study

0 1
C          0.70945        1.25908       -0.16140
C          1.44795       -0.04739        0.23309
C          0.75847       -1.30333       -0.28827
C         -0.69241       -1.31256        0.20965
C         -1.45534       -0.03565       -0.23070
N         -0.74200        1.19900        0.24700
C          1.35709        2.40535        0.60133
C          0.96806        1.58607       -1.65660
C         -1.69793       -0.09165       -1.76352
C         -2.85335       -0.03117        0.39528
H          0.71692        0.80993       -2.38046
H          0.47055        2.52926       -1.93721
H          2.05837        1.72728       -1.82665
H          2.45362        2.46208        0.41841
H          0.91459        3.36974        0.33473
H          1.16089        2.24223        1.65224
H         -2.76730       -0.06926        1.48330
H         -3.41153        0.88351        0.10002
H         -3.43964       -0.92335        0.08234
H         -2.45547       -0.86649       -2.01237
H         -2.03931        0.88002       -2.13196
H         -0.85031       -0.42009       -2.37134
H         -1.21000       -2.23088       -0.14505
H          0.82165       -1.35024       -1.39095
H          2.51108       -0.02529       -0.09454
H          1.44821       -0.13123        1.32198
H          1.28762       -2.20077        0.10223
H         -0.64848       -1.35498        1.31148
Li        -0.75479        1.22855        2.23674
C          0.58298        1.19783        4.91201
C          0.45504        1.17341        6.46201
C         -0.47256        0.07165        6.93768
C         -1.84436        0.33711        6.33328
C         -1.82062        0.34024        4.77825
N         -0.76758        1.25810        4.22648
C          1.38498        2.47633        4.59736
C          1.44414       -0.00095        4.44586
C         -1.68692       -1.10857        4.24964
C         -3.19674        0.86337        4.32828
H          1.10303       -0.98499        4.77691
H          1.51480       -0.00646        3.35735
H          2.47836        0.08129        4.84544
H          2.35648        2.47607        5.14038
H          1.65225        2.56833        3.54944
H          0.82275        3.38582        4.89261
H         -3.38336        1.87979        4.73301
H         -3.26708        0.94230        3.23454
H         -4.01009        0.19310        4.68665
H         -2.54382       -1.72636        4.59259
H         -1.69207       -1.11842        3.15272
H         -0.80314       -1.65282        4.59803
H         -2.57385       -0.41229        6.71181
H         -0.09538       -0.93439        6.66813
H          1.46027        1.05144        6.93045
H          0.04465        2.13937        6.81390
H         -0.54332        0.11304        8.04539
H         -2.17455        1.33361        6.70022
Li        -1.73783        2.77651       -0.44572
C         -2.97371        4.37841       -2.61466
C         -3.68727        5.68558       -3.05039
C         -3.01879        6.94152       -2.49940
C         -2.99305        6.84211       -0.96954
C         -2.20133        5.59657       -0.50603
N         -2.73367        4.35403       -1.13845
C         -3.91222        3.21741       -2.98747
C         -1.66591        4.15546       -3.42347
C         -0.68951        5.81663       -0.75962
C         -2.37247        5.42705        1.01247
H         -0.91665        4.95390       -3.32653
H         -1.20126        3.19819       -3.13518
H         -1.88320        4.10805       -4.50906
H         -4.09164        3.19768       -4.08472
H         -3.48341        2.25255       -2.69993
H         -4.88384        3.31885       -2.46746
H         -3.44223        5.27522        1.26912
H         -1.79951        4.54340        1.37117
H         -2.00769        6.32579        1.55748
H         -0.29654        6.61792       -0.09621
H         -0.13542        4.89539       -0.56357
H         -0.42139        6.15919       -1.76539
H         -2.55425        7.76777       -0.53460
H         -2.00492        7.06955       -2.92350
H         -3.75954        5.74512       -4.15915
H         -4.72400        5.68203       -2.64883
H         -3.60968        7.83496       -2.80081
H         -4.04497        6.76818       -0.61367
Li        -1.42637        3.02424        4.73678

-H 0
6-31g(d,p)
****
-Li 0
6-31g(d,p)
****
-C 0
6-31g(d,p)
****
-N 0
6-31+g(d,p)
****
-O 0
6-31+g(d,p)
****


