%chk=speciationDFT109.chk
%nprocshared=32
%mem=64GB
#p opt wb97xd/gen scf=xqc freq 

 speciation study

0 1
C -1.53994 -2.09422 -0.42475
C -2.82387 -1.25186 -0.78659
C -3.41835 -0.46822 0.39402
C -2.30107 0.26538 1.15931
C -1.23391 -0.72655 1.66909
N -0.56103 -1.31147 0.45693
C -2.00141 -3.44818 0.18558
C -0.84653 -2.47774 -1.73820
C -1.86352 -1.66784 2.72250
C -0.07711 -0.15042 2.54191
H -0.54015 -1.58782 -2.29240
H 0.04496 -3.10677 -1.54204
H -1.53779 -3.04207 -2.40528
H -2.58857 -4.02354 -0.56784
H -1.13506 -4.06347 0.49515
H -2.71580 -3.38201 1.00541
H 0.92137 0.26771 2.41756
H -0.42335 0.55128 3.32079
H 0.41737 0.19760 1.63567
H -1.16369 -2.47711 3.01280
H -2.11222 -1.07987 3.63964
H -2.84100 -2.11374 2.50020
H -1.89849 0.92188 0.39851
H -4.15632 0.27339 0.00162
H -3.61124 -1.87111 -1.27452
H -2.59327 -0.51781 -1.56085
H -3.98853 -1.13496 1.05812
H -2.72754 0.87226 1.98362
Li 1.41685 -1.25551 1.06613
C 3.97233 -1.70696 1.75371
C 4.11423 -1.95092 0.23772
C 4.05274 -0.60923 -0.52956
C 4.58569 0.62878 0.30465
C 3.95705 0.78554 1.73917
N 3.15453 -0.46113 1.96085
C 5.40939 -1.70807 2.36188
C 3.26974 -2.86858 2.48140
C 5.09851 1.22326 2.75523
C 2.97853 1.99433 2.01841
H 3.19675 -2.63377 3.56963
H 2.24567 -3.03324 2.09936
H 3.84391 -3.81670 2.38455
H 5.38680 -1.51404 3.45554
H 5.89492 -2.69792 2.23534
H 6.11141 -1.04229 1.82739
H 3.45386 2.97863 1.84603
H 2.65243 1.94326 3.08632
H 2.02480 2.04494 1.51695
H 5.66506 2.04785 2.25725
H 4.73240 1.65566 3.71001
H 5.89025 0.55256 3.07837
H 4.42879 1.56553 -0.20627
H 4.53588 -0.71284 -1.52274
H 5.05170 -2.51386 0.02862
H 3.28695 -2.58996 -0.14628
H 2.98624 -0.49354 -0.77408
H 5.68152 0.49268 0.36026
Li 0.44332 0.46132 -0.38817
C 2.13269 2.65850 -2.40830
C 2.05604 1.37124 -3.22418
C 0.77069 0.59967 -2.80558
C -0.41623 1.46587 -2.15060
C 0.04923 2.56376 -1.08289
N 1.49506 2.36513 -1.04774
C 1.46373 3.76284 -3.29210
C 3.55252 3.25452 -2.23983
C -0.62083 3.94077 -1.45545
C -0.27448 2.66505 0.43595
H 3.49871 4.13368 -1.55365
H 4.31306 2.56216 -1.90055
H 3.97113 3.62325 -3.20341
H 1.40665 4.74389 -2.77505
H 2.04727 3.95418 -4.21598
H 0.51289 3.44242 -3.74194
H -0.03978 1.80021 0.95618
H 0.36512 3.46027 0.89470
H -1.30900 2.92034 0.73746
H -0.90838 4.08877 -2.50170
H -1.65822 3.99799 -1.04789
H -0.05418 4.80072 -1.04329
H -1.12859 0.79758 -1.71236
H 0.44898 -0.05510 -3.64647
H 2.09563 1.60260 -4.31595
H 2.93605 0.71392 -3.03711
H 1.13928 -0.10349 -2.03628
H -0.92281 1.93635 -3.01476
Li 2.39891 0.84228 0.26990

-H 0
6-31g(d,p)
****
-Li 0
6-31g(d,p)
****
-C 0
6-31g(d,p)
****
-N 0
6-31+g(d,p)
****
-O 0
6-31+g(d,p)
****


