%chk=speciationDFT13.chk
%nprocshared=32
%mem=64GB
#p opt wb97xd/gen scf=xqc freq 

 speciation study

0 1
C          0.84081        1.05606       -0.45434
C          1.59272       -0.25691       -0.01540
C          0.99156       -1.52786       -0.61709
C         -0.47928       -1.58297       -0.23953
C         -1.23984       -0.29012       -0.64882
N         -0.66542        0.98809       -0.06587
C          1.55132        2.20243        0.26133
C          1.16054        1.31523       -1.97659
C         -1.28283       -0.29477       -2.19363
C         -2.63883       -0.38970       -0.15755
H          1.16418        0.44760       -2.64023
H          0.53849        2.12374       -2.40654
H          2.22603        1.59314       -2.12685
H          2.63617        2.20321       -0.00516
H          1.17218        3.16853       -0.07049
H          1.46500        2.12506        1.35901
H         -2.51907       -0.36665        0.90023
H         -3.22102        0.49796       -0.40403
H         -3.15822       -1.31333       -0.50116
H         -2.04520       -1.01917       -2.55690
H         -1.39179        0.75558       -2.46217
H         -0.45373       -0.62686       -2.82064
H         -0.93825       -2.48597       -0.70703
H          1.12074       -1.55475       -1.72004
H          2.66873       -0.21676       -0.31045
H          1.54617       -0.35305        1.09084
H          1.51939       -2.43396       -0.24417
H         -0.56279       -1.69252        0.83723
Li        -0.89664        0.94542        2.58656
C         -3.61139        0.78697        4.51741
C         -4.33215       -0.38030        5.17254
C         -4.29232       -1.44050        4.11032
C         -3.53495       -0.79161        2.96804
O         -2.76910        0.28770        3.46713
H         -4.43900        1.38212        4.06409
H         -3.08328        1.39529        5.28343
H         -3.75135       -0.74729        6.04446
H         -5.35839       -0.11846        5.52381
H         -2.91159       -1.58580        2.51343
H         -4.27636       -0.36566        2.25089
H         -3.68364       -2.27974        4.50840
H         -5.28062       -1.83231        3.77949
C          0.37793       -1.91822        3.59061
C         -0.30625       -2.59232        4.80281
C         -0.49433       -1.43479        5.73412
C          0.43322       -0.37895        5.13917
O          0.33619       -0.48868        3.71575
H          1.45555       -2.21400        3.62830
H          0.00307       -2.34833        2.65783
H         -1.29748       -3.03718        4.57820
H          0.35512       -3.38701        5.21805
H          0.17821        0.61914        5.52660
H          1.48283       -0.59820        5.46793
H         -1.51721       -1.04872        5.57708
H         -0.38394       -1.68335        6.81826
C          0.08800        3.90733        4.54080
C          0.19608        5.48057        4.34636
C         -1.06574        6.13151        3.80916
C         -1.29717        5.47823        2.47228
C         -1.58900        3.94554        2.67854
N         -0.51709        3.18481        3.34680
C          1.52775        3.42378        4.74003
C         -0.68077        3.65119        5.86341
C         -2.90396        3.81536        3.39567
C         -1.72686        3.37242        1.33694
H         -1.66660        4.12656        5.94244
H         -0.78457        2.57235        6.07820
H         -0.13819        4.12236        6.71326
H          1.94523        3.83154        5.69348
H          1.57572        2.32411        4.76823
H          2.18180        3.79332        3.92159
H         -0.77414        3.47746        0.77218
H         -1.92488        2.28150        1.41458
H         -2.54674        3.85198        0.81184
H         -3.63990        4.42733        2.88897
H         -3.15249        2.78418        3.34633
H         -2.97049        4.11474        4.43601
H         -2.18666        5.94898        1.98449
H         -1.92841        6.02939        4.50188
H          0.48470        5.98737        5.29726
H          0.98821        5.72561        3.60682
H         -0.92336        7.22212        3.65120
H         -0.43879        5.63792        1.80564
Li        -2.26099        2.68830       -1.22005
C         -5.26704        3.39150       -0.95413
C         -5.83878        4.25948        0.13628
C         -5.72286        3.36274        1.34377
C         -4.71849        2.28719        0.87195
O         -4.17089        2.70818       -0.36799
H         -6.06890        2.66867       -1.21604
H         -4.99561        3.96210       -1.86230
H         -6.86305        4.65525       -0.03920
H         -5.13786        5.11245        0.26348
H         -3.99871        1.97212        1.62391
H         -5.29393        1.35860        0.66726
H         -5.46489        4.01539        2.18852
H         -6.66078        2.85820        1.64846
C         -2.47758        5.68793       -1.60891
C         -2.18717        5.52656       -3.06436
C         -0.70546        5.25362       -3.12994
C         -0.38466        5.11023       -1.66223
O         -1.59239        4.73309       -1.03057
H         -2.25967        6.73053       -1.27028
H         -3.53433        5.51396       -1.34607
H         -2.63349        4.55968       -3.08212
H         -2.63792        6.10731       -3.89742
H          0.47788        4.47349       -1.47897
H         -0.08607        6.11374       -1.25289
H         -0.54698        4.28664       -3.66078
H         -0.09113        6.05837       -3.58281
C         -3.44079        2.86805       -4.53183
C         -4.88130        2.38819       -4.69472
C         -4.94310        1.24285       -3.74776
C         -3.52319        1.02848       -3.39980
O         -2.89340        2.28684       -3.31656
H         -2.82829        2.47534       -5.37882
H         -3.43013        3.95113       -4.75074
H         -5.62757        3.14113       -4.35401
H         -5.06717        2.09524       -5.74772
H         -3.56190        0.53027       -2.43957
H         -2.99389        0.41292       -4.17044
H         -5.39365        1.60028       -2.82023
H         -5.48968        0.33054       -4.05124

-H 0
6-31g(d,p)
****
-Li 0
6-31g(d,p)
****
-C 0
6-31g(d,p)
****
-N 0
6-31+g(d,p)
****
-O 0
6-31+g(d,p)
****


