%chk=speciationDFT33.chk
%nprocshared=32
%mem=64GB
#p opt wb97xd/gen scf=xqc freq 

 speciation study

0 1
C          1.04053        1.12749       -0.83110
C          1.57235       -0.28303       -0.48026
C          1.08959       -1.41530       -1.38560
C         -0.41984       -1.44134       -1.38257
C         -1.00767       -0.04061       -1.62477
N         -0.48248        1.11085       -0.69159
C          1.57731        2.12189        0.19247
C          1.76756        1.58075       -2.15828
C         -0.82360        0.19238       -3.15909
C         -2.49038       -0.24686       -1.46692
H          2.06548        2.64350       -2.13816
H          1.35994        1.39328       -3.14458
H          2.78200        1.13342       -2.20932
H          2.69220        2.14989        0.18897
H          1.21235        3.14483       -0.04574
H          1.22645        1.84468        1.18742
H         -2.79841       -1.06839       -0.82347
H         -2.93113        0.69767       -1.14541
H         -2.88884       -0.76948       -2.34973
H         -1.37913       -0.56512       -3.75772
H         -1.17710        1.17300       -3.48520
H          0.16073       -0.07733       -3.55201
H         -0.78551       -2.20171       -2.10957
H          1.48276       -1.28027       -2.40622
H          2.68180       -0.29774       -0.51621
H          1.20964       -0.47235        0.53425
H          1.46796       -2.40666       -1.06381
H         -0.85699       -1.81651       -0.47707
Li        -0.36274        0.94583        2.07800
C          1.54299        3.81802        3.06511
C          2.60962        3.79362        4.21821
C          1.90539        3.14769        5.36149
C          0.59210        2.69884        4.71345
O          0.68448        2.65619        3.28199
H          0.92226        4.73603        3.21013
H          2.03353        3.85883        2.10893
H          3.40463        3.08786        3.88931
H          3.09106        4.75307        4.46636
H          0.31763        1.72690        5.16347
H         -0.09160        3.54895        4.98006
H          2.52199        2.31621        5.75227
H          1.71137        3.79009        6.24607
C         -1.31221        4.87034        0.55210
C         -2.04766        6.08080        1.19826
C         -2.72970        6.75891        0.02031
C         -2.15190        6.00777       -1.16012
O         -1.88306        4.67327       -0.72588
H         -0.23732        5.13547        0.43191
H         -1.37212        3.94765        1.14969
H         -2.84351        5.78298        1.90667
H         -1.41023        6.74167        1.81658
H         -2.81959        6.06601       -2.03757
H         -1.21490        6.55772       -1.37500
H         -3.81991        6.58398        0.07212
H         -2.62385        7.86128       -0.04387
C         -3.27630        2.13641        3.93817
C         -4.79807        1.96546        4.34035
C         -5.28543        0.55101        4.41690
C         -4.98214       -0.00939        3.06072
C         -3.44378       -0.06895        2.78586
N         -2.63381        1.16592        2.88902
C         -3.20950        3.54972        3.37390
C         -2.60575        2.14669        5.28663
C         -2.81307       -1.03388        3.70415
C         -3.34789       -0.51388        1.36835
H         -2.73060        1.23334        5.88228
H         -1.61962        2.29246        5.08355
H         -2.94477        3.03041        5.88952
H         -3.61254        4.32910        4.05532
H         -2.18612        3.80875        3.08182
H         -3.89018        3.56810        2.52957
H         -3.91948        0.19511        0.72312
H         -2.27419       -0.49787        1.09774
H         -3.80282       -1.51220        1.19709
H         -3.29860       -2.02872        3.57395
H         -1.75420       -0.93524        3.42360
H         -2.85064       -0.74304        4.75945
H         -5.43645       -1.02109        2.97239
H         -4.81776       -0.02670        5.23561
H         -5.06657        2.49889        5.28150
H         -5.44100        2.45580        3.62797
H         -6.38525        0.54533        4.59006
H         -5.50464        0.62028        2.30529
Li        -1.87380        2.89855       -1.82875
C          0.00204        3.83461       -3.84775
C          0.06294        5.32872       -3.74285
C         -1.13486        5.76937       -4.52430
C         -1.94477        4.48540       -4.59323
O         -1.34426        3.49813       -3.74299
H          0.43041        3.44297       -4.79679
H          0.49405        3.45899       -2.98880
H         -0.13706        5.48876       -2.68279
H          1.01270        5.84859       -3.95523
H         -3.00174        4.72831       -4.49894
H         -1.89218        4.08261       -5.63037
H         -1.64728        6.60258       -3.98931
H         -0.89139        6.09121       -5.55840
C         -4.80378        1.32817       -2.64656
C         -5.57906        1.70117       -3.87734
C         -4.90718        2.97604       -4.24650
C         -4.55155        3.47270       -2.87155
O         -3.91889        2.38499       -2.24838
H         -5.51078        1.06345       -1.84585
H         -4.43970        0.31323       -2.80082
H         -5.57409        0.94254       -4.68737
H         -6.63183        1.90716       -3.55617
H         -3.94156        4.37138       -2.78189
H         -5.49775        3.75000       -2.36410
H         -3.96742        2.72482       -4.77922
H         -5.53822        3.66157       -4.84638
C          2.45481       -0.86552        3.33709
C          3.23567       -2.03019        4.02921
C          2.96160       -3.36059        3.40888
C          1.50923       -3.58745        3.66150
C          0.56667       -2.57069        2.93120
N          0.92738       -1.05936        3.10425
C          2.69536        0.29419        4.26307
C          3.23815       -0.52667        2.05737
C          0.63241       -2.83339        1.47633
C         -0.80276       -3.06397        3.39264
H          3.23741       -1.34413        1.32493
H          2.88193        0.42265        1.64558
H          4.31564       -0.34146        2.26445
H          3.77748        0.55976        4.35203
H          2.21139        1.11813        3.78751
H          2.29759        0.09619        5.28134
H         -1.00674       -2.77057        4.44774
H         -1.58498       -2.83531        2.63848
H         -0.88771       -4.17190        3.37644
H          0.24230       -3.83047        1.16947
H         -0.04491       -2.05024        1.19548
H          1.62180       -2.67591        1.06022
H          1.27972       -4.62429        3.32995
H          3.22561       -3.41463        2.33518
H          4.33631       -1.84705        3.99942
H          2.97515       -2.10061        5.11183
H          3.54431       -4.15595        3.92782
H          1.32284       -3.55295        4.76059
Li        -3.66671        2.01156        1.41317
C         -4.78064        4.21340        0.22721
C         -6.07272        4.56395        0.97108
C         -6.75740        3.24825        1.09824
C         -6.04553        2.42026        0.06983
O         -4.67366        2.83595       -0.02559
H         -4.75159        4.79984       -0.69970
H         -3.91392        4.49213        0.76086
H         -5.91897        5.04240        1.96533
H         -6.67774        5.23497        0.32435
H         -6.15905        1.33699        0.27758
H         -6.57394        2.63729       -0.88034
H         -6.54306        2.81644        2.06064
H         -7.86742        3.28448        1.02017

-H 0
6-31g(d,p)
****
-Li 0
6-31g(d,p)
****
-C 0
6-31g(d,p)
****
-N 0
6-31+g(d,p)
****
-O 0
6-31+g(d,p)
****


