%chk=speciationDFT16.chk
%nprocshared=32
%mem=64GB
#p opt wb97xd/gen scf=xqc freq 

 speciation study

0 1
C         -1.08456       -1.41198        0.31292
C         -2.48638       -1.52269       -0.32960
C         -3.39886       -0.38590        0.13774
C         -2.76548        0.90453       -0.28447
C         -1.31208        1.12082        0.27575
N         -0.42567       -0.07118        0.09871
C         -1.24709       -1.74481        1.80978
C         -0.19808       -2.52295       -0.29928
C         -1.39671        1.54282        1.77239
C         -0.75130        2.27183       -0.57980
H         -0.03024       -2.33924       -1.38174
H          0.76260       -2.58858        0.19859
H         -0.68487       -3.51852       -0.18818
H         -1.54447       -2.80467        1.96040
H         -0.31742       -1.55440        2.27832
H         -1.97553       -1.15687        2.36889
H         -1.41594        2.60789       -1.40582
H         -0.57718        3.18923        0.01826
H          0.11774        1.89593       -1.15738
H         -0.42219        1.55638        2.28877
H         -1.84467        2.55410        1.87753
H         -2.02912        0.89112        2.38403
H         -2.72231        0.85739       -1.39834
H         -4.39863       -0.48096       -0.34197
H         -2.96969       -2.49406       -0.09104
H         -2.42291       -1.47013       -1.43583
H         -3.58583       -0.39986        1.23382
H         -3.40363        1.77499       -0.01467
Li         1.27056        0.16614       -1.17047
C          1.82822        0.05759       -4.01007
C          1.04597        1.20259       -4.63553
C         -0.39583        0.81103       -4.40373
C         -0.26989       -0.48119       -3.61762
O          1.00708       -0.48755       -3.00447
H          1.99890       -0.73993       -4.77430
H          2.82812        0.35438       -3.63921
H          1.20480        2.11723       -4.03635
H          1.33131        1.42360       -5.68645
H         -1.10816       -0.62049       -2.91951
H         -0.30451       -1.34269       -4.32968
H         -0.85907        1.58299       -3.74898
H         -1.01233        0.69531       -5.32252
C          1.84011       -2.43379        3.05117
C          0.93780       -2.74316        4.25513
C          0.71097       -1.37127        4.86615
C          1.72314       -0.52356        4.14383
O          1.77297       -1.02660        2.81744
H          2.89037       -2.69014        3.33210
H          1.58366       -3.07056        2.18334
H         -0.05990       -3.14362        3.96389
H          1.42575       -3.47435        4.93210
H          1.43265        0.55048        4.20129
H          2.73229       -0.63882        4.61390
H         -0.27310       -0.99729        4.52066
H          0.73562       -1.32793        5.97733
C          3.45064        2.52071       -0.59532
C          2.28990        3.21507        0.10712
C          2.03194        2.35900        1.40103
C          3.24501        1.38469        1.86088
C          3.80759        0.43703        0.70492
N          3.15589        1.00059       -0.46872
C          4.65749        3.29883        0.13820
C          3.60075        2.85957       -2.08313
C          5.37933        0.29590        0.69743
C          3.47006       -1.09318        0.62473
H          4.52282        2.36754       -2.46966
H          2.74209        2.49111       -2.64675
H          3.68516        3.95080       -2.25816
H          5.64859        2.92374        0.30533
H          4.88275        4.24297       -0.40461
H          4.39793        3.72343        1.13145
H          3.85302       -1.64086        1.50287
H          2.45879       -1.41551        0.39578
H          3.95766       -1.54703       -0.27005
H          5.68257       -0.10838        1.68755
H          5.74104       -0.40481       -0.08606
H          6.07412        1.09389        0.53040
H          3.06184        0.84071        2.75466
H          1.61016        2.99939        2.20152
H          2.46978        4.28556        0.31545
H          1.45221        3.31250       -0.57998
H          1.22449        1.73068        1.07976
H          4.05110        2.02593        2.23503
Li         1.52003       -0.02233        0.89826

-H 0
6-31g(d,p)
****
-Li 0
6-31g(d,p)
****
-C 0
6-31g(d,p)
****
-N 0
6-31+g(d,p)
****
-O 0
6-31+g(d,p)
****


