%chk=speciationDFT14.chk
%nprocshared=32
%mem=64GB
#p opt wb97xd/gen scf=xqc freq 

 speciation study

0 1
C         -0.84717       -1.46662        0.61059
C         -2.26772       -1.57483       -0.00230
C         -3.19390       -0.42394        0.44457
C         -2.59523        0.89218        0.00114
C         -1.15277        1.06638        0.47588
N         -0.29110       -0.13848        0.21876
C         -0.90594       -1.76469        2.13994
C          0.08659       -2.57074        0.05818
C         -1.12801        1.43523        2.00229
C         -0.62274        2.19684       -0.43455
H          0.36886       -2.36494       -0.98671
H          1.02173       -2.63151        0.65997
H         -0.37847       -3.57962        0.13035
H         -1.27844       -2.80602        2.29955
H          0.09801       -1.70125        2.61530
H         -1.60153       -1.14526        2.71315
H         -1.23693        2.48878       -1.30475
H         -0.38933        3.13081        0.12295
H          0.18312        1.73993       -1.03430
H         -0.17314        1.19636        2.52224
H         -1.36794        2.50180        2.17515
H         -1.88337        0.88658        2.58201
H         -2.61478        0.86914       -1.10895
H         -4.17006       -0.50543       -0.07609
H         -2.74019       -2.55316        0.22324
H         -2.17223       -1.47783       -1.09677
H         -3.38051       -0.43211        1.53509
H         -3.19557        1.77392        0.32361
Li         1.38041        0.06518       -1.20416
C          1.96386       -0.79529       -3.93583
C          1.94239        0.40094       -4.87989
C          0.48366        0.83898       -4.85799
C         -0.15137       -0.17284       -3.91614
O          0.87998       -0.63446       -3.04576
H          1.78626       -1.72497       -4.53081
H          2.93700       -0.92366       -3.42042
H          2.56253        1.20276       -4.43780
H          2.35675        0.16971       -5.88612
H         -1.06175        0.20425       -3.40642
H         -0.49988       -1.03710       -4.53699
H          0.39470        1.83027       -4.37104
H          0.00390        0.94258       -5.85896
C          3.57435        2.47478       -0.53282
C          2.32368        3.03453        0.03730
C          1.98784        2.20755        1.33275
C          2.91133        0.98166        1.77158
C          3.76306        0.29079        0.60137
N          3.39959        0.97580       -0.61872
C          4.65864        3.14647        0.41538
C          3.87728        2.94078       -1.95848
C          5.30392        0.27860        0.88868
C          3.46323       -1.19759        0.27398
H          4.86340        2.52059       -2.25795
H          3.11770        2.55655       -2.67237
H          3.91720        4.04458       -2.03282
H          5.02090        2.75201        1.37573
H          4.66676        4.25158        0.28414
H          4.21078        3.20614        1.42398
H          3.64873       -1.90058        1.10771
H          2.48076       -1.36507       -0.17917
H          4.13816       -1.50457       -0.56576
H          5.48920        0.05759        1.96000
H          5.85324       -0.45791        0.27643
H          5.88739        1.15428        0.60654
H          2.28470        0.24049        2.32308
H          1.55151        2.83623        2.14028
H          2.36379        4.13125        0.23194
H          1.62206        3.02894       -0.78738
H          1.15913        1.67320        1.02287
H          3.59540        1.35305        2.55771
Li         1.54445        0.39061       -0.17327

-H 0
6-31g(d,p)
****
-Li 0
6-31g(d,p)
****
-C 0
6-31g(d,p)
****
-N 0
6-31+g(d,p)
****
-O 0
6-31+g(d,p)
****


