%chk=speciationDFT39.chk
%nprocshared=32
%mem=64GB
#p opt wb97xd/gen scf=xqc freq 

 speciation study

0 1
C          0.65347        1.23269       -0.26929
C          1.21118       -0.20559       -0.15156
C          0.45639       -1.25334       -0.98629
C         -1.03800       -1.26798       -0.64163
C         -1.60383        0.17989       -0.52549
N         -0.74200        1.19900        0.24700
C          1.39689        2.24235        0.61564
C          0.91367        1.76073       -1.71647
C         -1.85802        0.57299       -1.99110
C         -2.99179        0.13189        0.13121
H          0.63117        1.11776       -2.54941
H          0.47694        2.76708       -1.86539
H          2.00862        1.84245       -1.88654
H          2.48106        2.27865        0.38004
H          0.97701        3.26044        0.44660
H          1.24164        2.00723        1.67588
H         -2.89295       -0.23255        1.16755
H         -3.46289        1.13777        0.10877
H         -3.67123       -0.57005       -0.39947
H         -2.77215        0.08824       -2.39814
H         -1.91548        1.64522       -2.03321
H         -1.12012        0.21507       -2.72025
H         -1.58416       -1.87297       -1.39925
H          0.60647       -1.03262       -2.05689
H          2.28393       -0.24185       -0.42885
H          1.03631       -0.48445        0.88517
H          0.87556       -2.26901       -0.80771
H         -1.25471       -1.88453        0.21690
Li        -0.50106        0.95554        2.34981
C         -3.10441        1.98810        3.15854
C         -3.03828        3.27730        2.37033
C         -1.77640        3.89977        2.91828
C         -1.35348        2.98552        4.02479
O         -1.79115        1.71513        3.62142
H         -3.74290        2.16297        4.05562
H         -3.60092        1.16408        2.62803
H         -2.87743        3.06577        1.29600
H         -3.97649        3.87433        2.47574
H         -0.25828        3.03279        4.18946
H         -1.86240        3.26629        4.97570
H         -0.98559        3.72272        2.15336
H         -1.84795        4.97028        3.21092
C          2.27158       -0.30990        3.65886
C          2.77226       -1.34705        4.69383
C          2.09536       -2.70007        4.51237
C          0.62223       -2.49099        4.80482
C         -0.01841       -1.49727        3.81956
N          0.74848       -0.22211        3.63987
C          2.82879        1.06772        4.06904
C          2.97360       -0.65067        2.31735
C         -0.22607       -2.13973        2.48009
C         -1.43628       -1.17709        4.35518
H          2.65250       -1.59939        1.85142
H          2.91739        0.20283        1.62550
H          4.06996       -0.76324        2.45808
H          3.94094        1.05748        4.08559
H          2.52567        1.85655        3.35854
H          2.46151        1.36265        5.07048
H         -1.38770       -0.63680        5.32198
H         -2.01360       -0.57745        3.63006
H         -2.02688       -2.10876        4.49709
H         -0.91895       -3.00903        2.51840
H         -0.68685       -1.30133        1.95318
H          0.69693       -2.46550        1.97532
H          0.08034       -3.46318        4.77384
H          2.26273       -3.12491        3.49894
H          3.87648       -1.47038        4.61998
H          2.55739       -0.98805        5.72269
H          2.50829       -3.42256        5.24442
H          0.53391       -2.09540        5.84000
Li        -1.73783        2.77651       -0.44572
C         -3.08632        4.22565       -2.62348
C         -3.82790        5.48208       -3.18332
C         -3.08353        6.77712       -2.94516
C         -2.90148        6.90701       -1.45110
C         -2.09528        5.72110       -0.84091
N         -2.73367        4.35403       -1.13845
C         -4.10841        3.08707       -2.85075
C         -1.84330        3.96280       -3.54238
C         -0.59356        5.81706       -1.25809
C         -2.09888        6.02331        0.65608
H         -1.15018        4.79750       -3.64348
H         -1.22561        3.10810       -3.25868
H         -2.16273        3.79185       -4.59090
H         -4.31866        2.98151       -3.94083
H         -3.81753        2.10452       -2.50029
H         -5.06273        3.30533       -2.33477
H         -3.09582        5.86483        1.11597
H         -1.29185        5.46759        1.12236
H         -1.80779        7.08293        0.85229
H         -0.08952        6.66399       -0.74011
H         -0.05407        4.89006       -0.98289
H         -0.40090        6.06912       -2.30515
H         -2.39944        7.88046       -1.24441
H         -2.11718        6.80993       -3.48466
H         -4.00978        5.37653       -4.27747
H         -4.82097        5.57990       -2.69128
H         -3.69097        7.62935       -3.32233
H         -3.91188        6.94868       -0.98446
Li         0.42271        0.67032        5.34162

-H 0
6-31g(d,p)
****
-Li 0
6-31g(d,p)
****
-C 0
6-31g(d,p)
****
-N 0
6-31+g(d,p)
****
-O 0
6-31+g(d,p)
****


