%chk=speciation54.chk
%nprocshared=16
%mem=32GB
#p opt=loose PM7 scf=xqc 

 speciation study

-2 1
Mg         1.16778        0.86363        0.30910
C          3.37516        2.33902        0.00130
C          3.97609        0.06768        0.23572
O          3.10023        1.12600        0.65162
C          4.43263        3.17655        0.73346
C          5.45054        0.24644        0.66395
H          3.59910        2.18746       -1.07197
H          2.43856        2.92736        0.04360
H          3.65954       -0.85004        0.76874
H          3.91772       -0.13257       -0.85439
H          5.52089        0.51555        1.74464
H          6.03810       -0.67711        0.49962
H          5.96961        0.98589        0.02584
H          4.59317        4.11111        0.16564
H          5.43548        2.75539        0.81982
H          4.12570        3.34509        1.78096
H         -0.20662       -1.38260        1.22709
C          1.31344       -0.74367        2.66609
C          0.83590       -1.00130        1.22682
C          1.45127       -1.99009        3.54013
H          2.29696       -0.23378        2.63689
H          0.58900       -0.07561        3.14473
H          0.47956       -2.52414        3.59390
H          2.21757       -2.65952        3.09748
C          1.88981       -1.60595        4.96119
H          1.49562       -1.72936        0.71332
H          2.85675       -1.05661        4.94186
H          1.12941       -0.95301        5.44173
H          2.01366       -2.51815        5.58412
C          0.61162        2.43782       -2.19571
C          0.10526        2.59572       -3.48686
C         -0.29701        1.34136       -3.87085
C         -0.01649        0.48634       -2.82006
N          0.53332        1.16112       -1.76261
C         -0.39467       -0.96009       -2.91566
N          0.76663       -1.80737       -3.21954
C          0.42605       -3.25489       -3.36876
H          0.02603        3.48696       -4.05904
H          0.97933        3.27414       -1.62406
H         -0.76081        1.07911       -4.81183
H         -0.92831       -1.23501       -1.98571
H         -1.10808       -1.05933       -3.76481
C         -0.32199       -3.52513       -4.69689
C          1.74652       -4.04205       -3.39398
C         -0.43629       -3.79549       -2.19728
H          0.27275       -3.17680       -5.56701
H         -0.50983       -4.61542       -4.81988
H         -1.31408       -3.03036       -4.72536
H          2.30528       -3.88448       -2.44759
H          1.56520       -5.13571       -3.51075
H          2.38129       -3.70590       -4.24062
H          0.04289       -3.58416       -1.21876
H         -1.45741       -3.35675       -2.20411
H         -0.57807       -4.89452       -2.29097
Mg         1.41648       -1.25070       -5.01618
H          0.24836        3.31132        1.06058
C         -0.15964        2.49990        3.02648
C         -0.04179        2.33159        1.48961
C          1.16127        2.75834        3.76931
H         -0.85777        3.33885        3.24952
H         -0.63976        1.60250        3.46295
H          0.94104        2.81032        4.85985
H          1.87382        1.92411        3.60891
C          1.81338        4.07410        3.36524
H         -1.07259        2.10953        1.13878
H          2.09488        4.05043        2.29773
H          1.11435        4.91939        3.53187
H          2.72697        4.23787        3.97659
C          2.49320       -1.54315       -7.76857
C          2.88670       -0.84455       -8.89386
C          2.68714        0.48906       -8.61767
C          2.19073        0.54018       -7.32950
N          2.06632       -0.69404       -6.81282
C          1.88331        1.77133       -6.56105
N          2.59407        1.76131       -5.27099
C          4.06698        1.93479       -5.26625
H          3.28631       -1.25973       -9.80948
H          2.52962       -2.61749       -7.65118
H          2.90350        1.32521       -9.27035
H          2.08313        2.69261       -7.14199
H          0.79613        1.76231       -6.35884
C          4.46889        3.26450       -5.92992
C          4.50163        1.96072       -3.79507
C          4.81437        0.75771       -5.93390
H          3.95882        4.11312       -5.42535
H          5.56657        3.41582       -5.86679
H          4.19826        3.27679       -7.00548
H          4.19898        1.01713       -3.28855
H          5.60578        2.06198       -3.71065
H          4.02880        2.81445       -3.26774
H          4.48848       -0.21238       -5.49823
H          4.67825        0.73890       -7.02716
H          5.90990        0.85516       -5.78592

