%chk=speciation79.chk
%nprocshared=16
%mem=32GB
#p opt=loose PM7 scf=xqc 

 speciation study

-2 1
Mg         1.16430       -0.08289        0.44859
C          0.99885        2.05045        2.87430
C         -0.95650        1.49068        1.66414
O          0.45156        1.40692        1.71089
C          0.35483        1.78488        4.26543
C         -1.51221        2.90021        1.44680
H          2.05934        1.77098        2.96471
H          0.99326        3.14753        2.70122
H         -1.23268        0.88014        0.81040
H         -1.45288        1.03739        2.54472
H         -1.08864        3.34458        0.52463
H         -2.61856        2.84532        1.34801
H         -1.29199        3.55208        2.31734
H          0.44408        0.74354        4.61059
H          0.89526        2.37872        5.03046
H         -0.70997        2.09677        4.31858
H          0.98233        1.47183       -1.62955
C         -0.91516        0.91292       -2.35901
C          0.31929        0.58233       -1.55187
C         -0.63896        1.21204       -3.83629
H         -1.54322       -0.00411       -2.35153
H         -1.41135        1.80409       -1.92538
H         -0.06133        2.15725       -3.93966
H         -0.05344        0.38578       -4.30516
C         -1.97422        1.31606       -4.56721
H          0.61450       -0.26356       -2.15562
H         -2.52248        0.34948       -4.48593
H         -2.59986        2.11365       -4.11251
H         -1.81837        1.53867       -5.64230
C         -2.23725       -4.10822       -1.66331
C         -1.51632       -5.24345       -1.98477
C         -0.28936       -5.12161       -1.36744
C         -0.32388       -3.91339       -0.69078
N         -1.50010       -3.30928       -0.86823
C          0.77491       -3.33003        0.14074
N          0.33878       -2.13310        0.94573
C          0.27856       -2.53036        2.40431
H         -1.84845       -6.07462       -2.59743
H         -3.24349       -3.87938       -1.98635
H          0.52437       -5.83580       -1.38945
H          1.63272       -3.11108       -0.49734
H          1.11600       -4.17339        0.76887
C          1.66611       -2.93601        2.99614
C         -0.19722       -1.33630        3.17342
C         -0.74583       -3.67028        2.69111
H          2.42550       -2.14743        2.81864
H          1.58386       -3.09526        4.09614
H          2.06446       -3.89587        2.60476
H         -1.20587       -1.05436        2.82179
H         -0.24669       -1.53512        4.26728
H          0.54852       -0.56128        2.97417
H         -1.75498       -3.40430        2.31068
H         -0.45325       -4.64575        2.25413
H         -0.83626       -3.84257        3.79018
Mg        -1.52969       -1.67342        0.07921
H         -3.43407        0.33269        0.71485
C         -4.43732       -0.36155       -1.06256
C         -3.16848       -0.14991       -0.24311
C         -5.46368       -1.08806       -0.20969
H         -4.86008        0.64104       -1.31350
H         -4.22876       -0.88500       -2.01884
H         -5.10717       -2.10748        0.01924
H         -5.59570       -0.52354        0.74276
C         -6.80829       -1.11128       -0.90529
H         -2.70999        0.67312       -0.76608
H         -7.16995       -0.07662       -1.10100
H         -6.74816       -1.65879       -1.87793
H         -7.55396       -1.61461       -0.25024
C          7.70129        1.39183        0.52202
C          6.98233        2.51966        0.17803
C          5.64859        2.25449        0.44398
C          5.55110        1.01195        0.92726
N          6.82937        0.41353        1.03149
C          4.25789        0.28967        1.26338
N          3.35598        0.13366        0.08492
C          3.97231       -0.63953       -1.05890
H          7.39647        3.42182       -0.24784
H          8.77232        1.27523        0.40923
H          4.82502        2.92635        0.25247
H          3.75396        0.88596        2.03783
H          4.47688       -0.69714        1.70557
C          4.45250       -2.02970       -0.60963
C          2.92257       -0.85146       -2.11342
C          5.09950        0.10918       -1.83347
H          3.66491       -2.52220       -0.00988
H          4.69193       -2.66829       -1.48688
H          5.36080       -1.95722        0.01885
H          2.63040        0.14455       -2.51298
H          3.28051       -1.43687       -2.98382
H          2.12445       -1.43534       -1.64665
H          4.77771        1.13994       -2.10734
H          6.06277        0.14658       -1.31304
H          5.34870       -0.42122       -2.77995

