%chk=speciation133.chk
%nprocshared=16
%mem=32GB
#p opt=loose PM7 scf=xqc 

 speciation study

-2 1
Mg         5.77820        4.78531        2.48368
C          7.59064        3.98668        1.00342
C          8.35057        6.12578        1.48963
O          7.19133        5.30782        1.32610
C          8.31472        3.26950        2.15324
C          8.03695        7.61624        1.69626
H          6.66036        3.41848        0.82721
H          8.15807        3.95099        0.04065
H          9.00794        5.82259        2.31748
H          8.92059        6.10350        0.53166
H          7.71992        7.82746        2.72989
H          8.97153        8.20556        1.56133
H          7.28156        7.97785        0.97045
H          7.72556        3.34700        3.08950
H          8.45014        2.19478        1.89944
H          9.32898        3.68357        2.32317
H          5.52299        5.76826        4.97627
C          5.21688        7.54512        3.75811
C          5.87932        6.19042        4.01482
C          3.69708        7.43776        3.77045
H          5.53831        8.24786        4.55873
H          5.53714        7.95386        2.77846
H          3.36247        6.75553        2.95964
H          3.36966        7.02896        4.75042
C          3.06188        8.81346        3.57928
H          6.97441        6.32308        4.11948
H          3.38556        9.50289        4.38956
H          3.35638        9.24610        2.59915
H          1.95704        8.72083        3.61481
C          3.84085        2.79611        3.41892
C          2.93489        1.79563        3.13201
C          2.87323        1.69996        1.76299
C          3.74315        2.65269        1.26429
N          4.34311        3.33209        2.28681
C          4.02309        2.84530       -0.20873
N          2.83437        3.00370       -1.07734
C          2.04647        4.27718       -0.89780
H          2.39300        1.18831        3.84677
H          4.13530        3.10628        4.41171
H          2.27024        1.00309        1.19278
H          4.75126        3.65431       -0.37771
H          4.50661        1.91185       -0.53203
C          2.86189        5.46416       -1.40155
C          0.77157        4.15108       -1.72898
C          1.54664        4.61005        0.53422
H          3.07163        5.28033       -2.45977
H          2.29622        6.41596       -1.34732
H          3.79195        5.59196       -0.80614
H          0.10729        3.34859       -1.34916
H          0.20162        5.10649       -1.77151
H          1.05498        3.87958       -2.72997
H          0.84957        3.83756        0.92307
H          2.35959        4.79633        1.25694
H          0.96555        5.56438        0.49853
Mg         3.69828        2.74484       -3.08811
C          2.33362        4.42382       -5.24146
C          1.11393        2.42515       -4.78046
O          2.31492        3.16991       -4.54901
C          1.15757        5.38474       -4.97737
C          0.96303        1.96836       -6.24242
H          3.23991        4.96996       -4.93725
H          2.43301        4.24574       -6.33345
H          1.10821        1.56955       -4.08332
H          0.18691        2.94927       -4.47386
H          1.90392        1.57633       -6.65662
H          0.18545        1.18028       -6.32053
H          0.66833        2.81944       -6.88786
H          1.11140        5.69361       -3.91777
H          1.30414        6.31352       -5.56454
H          0.18158        4.96184       -5.28978
H          5.01027        5.36398       -3.10167
C          6.07202        4.31611       -4.58884
C          5.34052        4.31709       -3.24816
C          7.11173        5.44290       -4.75167
H          6.55971        3.33210       -4.71804
H          5.33344        4.44955       -5.40188
H          7.58826        5.31387       -5.74730
H          6.61875        6.44211       -4.74312
C          8.21120        5.44932       -3.68846
H          6.06379        4.10965       -2.43196
H          7.80346        5.77242       -2.70806
H          8.65425        4.43199       -3.59346
H          9.00704        6.15977       -3.98025
C          4.68656       -1.73471       -0.01459
C          5.98752       -2.16663       -0.14556
C          6.60671       -1.33595       -1.07116
C          5.71480       -0.41975       -1.48354
N          4.47979       -0.60322       -0.81761
C          5.94820        0.60505       -2.56063
N          4.77197        0.78783       -3.44806
C          4.44177       -0.41475       -4.31616
H          6.42011       -3.02153        0.35933
H          3.92622       -2.19394        0.60383
H          7.62738       -1.43274       -1.42049
H          6.86030        0.34571       -3.14443
H          6.18570        1.57583       -2.09109
C          3.82800       -1.60034       -3.52794
C          3.41001       -0.00010       -5.33268
C          5.64839       -0.95184       -5.13841
H          2.95606       -1.27452       -2.92153
H          3.47550       -2.39405       -4.22261
H          4.57518       -2.11515       -2.89769
H          3.82126        0.79139       -5.99234
H          3.05796       -0.85070       -5.95890
H          2.55431        0.34053       -4.76768
H          6.07445       -0.16047       -5.78927
H          6.44601       -1.37691       -4.49931
H          5.31470       -1.78088       -5.80575

