%chk=speciation156.chk
%nprocshared=16
%mem=32GB
#p opt=loose PM7 scf=xqc 

 speciation study

-2 1
Mg         1.05654        0.05813        0.05852
C         -1.73319        1.13904        0.12108
C         -3.05658        0.74951        0.18009
C         -3.06343       -0.62886        0.15246
C         -1.74149       -1.01851        0.07604
N         -0.93346        0.05813        0.05852
C         -1.24567       -2.42615        0.04292
N         -1.81033       -3.10809       -1.12951
C         -1.34559       -4.49345       -1.36166
H         -3.91917        1.39858        0.24995
H         -1.37216        2.15852        0.14230
H         -3.93157       -1.27366        0.19565
H         -0.14039       -2.38633       -0.01264
H         -1.56017       -2.92663        0.98131
C         -1.75226       -5.42637       -0.20145
C         -2.02967       -4.99259       -2.64592
C          0.18197       -4.54494       -1.57753
H         -2.85341       -5.40292       -0.05212
H         -1.45160       -6.47384       -0.42120
H         -1.26050       -5.13637        0.74881
H         -1.77800       -4.33088       -3.50251
H         -1.70148       -6.02589       -2.89361
H         -3.13459       -4.99802       -2.52501
H          0.47588       -3.86018       -2.40194
H          0.73878       -4.26293       -0.66145
H          0.50281       -5.57543       -1.84099
C          1.43929        2.25820       -3.17809
C          2.14941        3.42346       -2.99149
C          2.96780        3.23505       -1.89360
C          2.76770        2.00327       -1.42483
N          1.80256        1.31664       -2.19825
C          3.47447        1.44030       -0.22257
N          3.04654        0.05813        0.05852
C          3.62534       -0.55135        1.28125
H          2.07245        4.31784       -3.59586
H          0.70918        2.08728       -3.95881
H          3.65290        3.96298       -1.47816
H          3.22435        2.10832        0.62530
H          4.56399        1.47576       -0.42625
C          3.23695        0.23092        2.55685
C          3.05747       -1.97431        1.39810
C          5.16470       -0.64555        1.18245
H          2.13283        0.31175        2.64561
H          3.62588       -0.28717        3.46058
H          3.67396        1.24993        2.56954
H          3.32393       -2.57507        0.50232
H          3.46242       -2.48809        2.29784
H          1.95009       -1.94359        1.48264
H          5.46261       -1.20655        0.27093
H          5.63614        0.35828        1.15169
H          5.58218       -1.16830        2.07009

