%chk=speciation140.chk
%nprocshared=16
%mem=32GB
#p opt=loose PM7 scf=xqc 

 speciation study

-2 1
Mg         0.73353       -0.36755       -0.46485
C          0.71139       -3.14784       -2.08062
C         -1.32835       -2.64870       -1.10031
O          0.02347       -2.26595       -1.20532
C          0.10048       -3.29188       -3.48688
C         -1.97802       -1.59420       -0.32194
H          1.72681       -2.75147       -2.21093
H          0.80649       -4.16006       -1.61447
H         -1.88630       -2.68854       -2.06171
H         -1.41657       -3.60584       -0.52898
H         -1.94095       -0.63338       -0.84914
H         -3.02290       -1.85287       -0.05176
H         -1.27772       -1.52194        0.50138
H         -0.20474       -2.29897       -3.87406
H          0.84207       -3.74726       -4.17467
H         -0.78190       -3.97278       -3.47435
H          3.55144        0.81721       -4.04642
C          5.38567        0.04301       -4.88084
C          4.53313        0.45862       -3.68227
C          5.67187        1.24764       -5.79809
H          6.35410       -0.36786       -4.52570
H          4.83528       -0.74087       -5.44184
H          4.71648        1.70955       -6.12624
H          6.26010        2.01295       -5.24163
C          6.46428        0.83321       -7.03449
H          5.02512        1.34277       -3.24003
H          7.44899        0.41064       -6.74311
H          5.89606        0.07595       -7.61474
H          6.63719        1.71980       -7.68153
C          0.62232        1.54555        1.89248
C          0.34640        1.93644        3.17311
C         -0.44162        0.96919        3.70706
C         -0.61682        0.01587        2.72327
N          0.10893        0.32006        1.58423
C         -1.55783       -1.12889        2.92441
N         -2.47527       -0.91841        4.04705
C         -3.64923       -1.82965        4.06410
H          0.65410        2.84657        3.67590
H          1.17719        2.17248        1.21976
H         -0.86359        0.96812        4.70297
H         -2.22203       -1.00532        2.09138
H         -1.02025       -2.10051        2.97917
C         -3.20414       -3.16559        4.65727
C         -4.71919       -1.17193        4.94787
C         -4.31152       -2.08033        2.67440
H         -2.73534       -2.99587        5.64877
H         -4.06350       -3.85813        4.76442
H         -2.45151       -3.64383        3.99333
H         -5.03526       -0.20116        4.50246
H         -5.61866       -1.82134        5.02570
H         -4.32496       -0.97625        5.96498
H         -4.62189       -1.12521        2.19311
H         -3.63690       -2.63498        1.99061
H         -5.21461       -2.71890        2.77773
Mg         4.14652       -0.97506       -2.05691
C         -1.05221        1.93762       -1.30826
C          0.42843        1.27077       -3.05961
O          0.09051        1.15092       -1.66775
C         -2.33107        1.78922       -2.18181
C          0.80989        2.70757       -3.48992
H         -1.33008        1.70187       -0.27492
H         -0.77510        3.02278       -1.28709
H          1.30549        0.62660       -3.25139
H         -0.38600        0.87748       -3.70181
H          1.69784        3.06747       -2.93029
H          1.04482        2.72662       -4.57539
H         -0.01941        3.43317       -3.34420
H         -2.73404        0.76043       -2.18342
H         -3.13097        2.44889       -1.77575
H         -2.18034        2.09580       -3.23672
H          4.78193       -3.67389       -1.86573
C          5.86727       -3.30731       -3.62427
C          4.64047       -3.03167       -2.76063
C          7.15838       -2.89413       -2.91169
H          5.91270       -4.40013       -3.84217
H          5.76532       -2.76919       -4.58557
H          7.11922       -1.81018       -2.67786
H          7.26522       -3.45958       -1.95799
C          8.37372       -3.16750       -3.79689
H          3.74651       -3.40808       -3.29882
H          8.46145       -4.25479       -4.01142
H          8.27854       -2.61569       -4.75692
H          9.29794       -2.82786       -3.28297
C          6.90916        1.71473       -0.48650
C          6.67107        2.13108        0.80239
C          5.33237        1.89445        1.06952
C          4.77147        1.34376       -0.01591
N          5.72792        1.19571       -1.03531
C          3.31049        0.95745       -0.13196
N          2.97453       -0.46682       -0.40113
C          3.48348       -1.42539        0.65430
H          7.40248        2.57000        1.46795
H          7.85527        1.77396       -1.00945
H          4.82880        2.11699        2.00327
H          2.85232        1.58095       -0.92680
H          2.87705        1.24065        0.81290
C          3.04186       -1.06921        2.09763
C          2.91773       -2.82298        0.38271
C          5.03154       -1.55971        0.61951
H          1.94669       -1.16302        2.20369
H          3.48945       -1.78522        2.82054
H          3.36213       -0.06390        2.42920
H          3.18435       -3.16721       -0.61564
H          3.32525       -3.56187        1.10799
H          1.81611       -2.83139        0.47293
H          5.39232       -1.77460       -0.40575
H          5.56967       -0.68459        1.00766
H          5.37295       -2.37785        1.28687

