%chk=speciation95.chk
%nprocshared=16
%mem=32GB
#p opt=loose PM7 scf=xqc 

 speciation study

-2 1
Mg         6.47795        3.18786        2.96783
C          8.86149        1.85178        3.33229
C          7.30677        1.29426        5.00779
O          7.76478        2.29596        4.11335
C          8.53507        0.69976        2.37297
C          6.09206        1.77543        5.78169
H          9.18264        2.71706        2.71498
H          9.73137        1.59947        3.97830
H          6.99524        0.36478        4.48855
H          8.10554        1.07363        5.74951
H          5.23293        1.87188        5.09251
H          5.81811        1.02148        6.55027
H          6.30278        2.74324        6.28334
H          7.65626        0.95806        1.74745
H          9.40845        0.51380        1.71323
H          8.34104       -0.24642        2.91772
H          7.79422        1.98841       -2.10224
C          6.63964        0.42507       -1.15392
C          6.89536        1.92209       -1.45587
C          6.38360       -0.40261       -2.41558
H          7.54051        0.01003       -0.64404
H          5.78049        0.31569       -0.45645
H          5.47146       -0.02647       -2.91909
H          7.25087       -0.30489       -3.10268
C          6.19922       -1.89195       -2.09198
H          7.15266        2.39517       -0.48510
H          7.11473       -2.31460       -1.62381
H          5.33980       -2.04614       -1.40505
H          6.00453       -2.45126       -3.03166
C          2.54116        3.44075       -1.71475
C          1.52695        3.30184       -0.78332
C          2.13744        3.05334        0.41476
C          3.50074        3.10007        0.18328
N          3.75156        3.28469       -1.13422
C          4.52324        2.87970        1.25933
N          5.15796        4.10275        1.79280
C          4.34239        5.00313        2.66901
H          0.45930        3.36757       -0.96284
H          2.38137        3.63772       -2.75124
H          1.64331        2.88652        1.36336
H          5.30648        2.23104        0.83417
H          4.09768        2.26913        2.07762
C          3.68694        4.24939        3.84399
C          5.30339        6.05158        3.25484
C          3.25320        5.78508        1.90031
H          4.46343        3.76924        4.46029
H          3.12860        4.95177        4.50001
H          2.95833        3.48782        3.49966
H          5.76970        6.64737        2.44084
H          4.75898        6.75170        3.92823
H          6.10782        5.56216        3.84309
H          3.67819        6.31869        1.02605
H          2.41990        5.15559        1.57344
H          2.77640        6.53449        2.57059
Mg         5.43364        3.37673       -2.29249
H          4.08037        1.79078       -4.14171
C          5.45238        2.46924       -5.66644
C          4.62246        2.72966       -4.37758
C          4.64306        2.09516       -6.91134
H          5.97217        3.37174       -5.99964
H          6.20300        1.68025       -5.45334
H          4.12064        1.13022       -6.75444
H          3.89208        2.88737       -7.13042
C          5.58964        1.99345       -8.11861
H          3.87336        3.51883       -4.60549
H          6.08188        2.97518       -8.30991
H          6.38409        1.24037       -7.92827
H          5.03102        1.70629       -9.03192
C          6.91009        9.47752       -0.46786
C          5.59671        9.36394       -0.86858
C          5.32429        8.01576       -1.01657
C          6.42998        7.33407       -0.72758
N          7.48088        8.19786       -0.34852
C          6.56584        5.83472       -0.83884
N          6.24413        5.35162       -2.19752
C          7.20884        5.74845       -3.26369
H          4.91751       10.18636       -1.05107
H          7.43088       10.40869       -0.28124
H          4.38974        7.58369       -1.34679
H          5.83677        5.39785       -0.14261
H          7.57231        5.49683       -0.51695
C          8.67472        5.36725       -2.94920
C          6.80024        4.97849       -4.46867
C          7.10948        7.24394       -3.65109
H          8.75312        4.28576       -2.70741
H          9.31666        5.56690       -3.83741
H          9.08316        5.96051       -2.10987
H          5.73546        5.20991       -4.71205
H          7.42498        5.20285       -5.35934
H          6.93427        3.91297       -4.19546
H          6.04958        7.52725       -3.84060
H          7.54181        7.91310       -2.89167
H          7.68762        7.44665       -4.57911

