%chk=speciation148.chk
%nprocshared=16
%mem=32GB
#p opt=loose PM7 scf=xqc 

 speciation study

-2 1
Mg         1.49507        0.06149        0.13314
C          1.12605        0.81319       -2.77281
C          2.67089       -0.91096       -2.24253
O          1.93003        0.19898       -1.77149
C          0.28401       -0.16938       -3.58989
C          3.82334       -0.47567       -3.14968
H          0.46618        1.52962       -2.26512
H          1.72749        1.46102       -3.44909
H          3.05425       -1.45100       -1.36945
H          2.04525       -1.69176       -2.71288
H          4.46875        0.26594       -2.63519
H          4.43183       -1.35973       -3.42568
H          3.43305       -0.01949       -4.08408
H         -0.14892       -0.89012       -2.87700
H         -0.49685        0.35246       -4.18033
H          0.91458       -0.73395       -4.30771
H         -4.52343       -2.15912        2.13496
C         -3.51996       -2.71782        3.95426
C         -3.50405       -2.48033        2.43394
C         -4.51009       -3.83910        4.34837
H         -2.53057       -3.09018        4.28017
H         -3.76284       -1.77145        4.47650
H         -5.54110       -3.57878        4.03118
H         -4.22551       -4.79373        3.84673
C         -4.49656       -4.08549        5.85454
H         -3.42136       -3.51204        2.08902
H         -3.47829       -4.37971        6.18939
H         -4.80928       -3.16588        6.39010
H         -5.20021       -4.90731        6.11062
C         -1.18617       -5.22944        2.36802
C         -0.08274       -5.90725        1.91531
C          0.73686       -4.98308        1.27627
C          0.15000       -3.78318        1.33445
N         -1.05743       -3.87583        2.03877
C          0.69266       -2.50125        0.72901
N          0.13570       -1.23088        1.28073
C          0.67147       -0.96404        2.69275
H          0.08757       -6.96868        2.03883
H         -2.02897       -5.65591        2.89441
H          1.68236       -5.20438        0.80232
H          0.53421       -2.50961       -0.35677
H          1.79637       -2.51932        0.76720
C          2.20170       -1.09396        2.82224
C          0.32597        0.46721        3.08711
C          0.03496       -1.85540        3.77672
H          2.70477       -0.42073        2.11195
H          2.52977       -0.80742        3.84696
H          2.57323       -2.12862        2.68480
H         -0.71970        0.52216        3.32310
H          0.82458        0.77201        4.03766
H          0.58860        1.17480        2.29544
H         -1.05094       -1.74454        3.69559
H          0.36127       -2.90627        3.70472
H          0.36211       -1.52557        4.79135
Mg        -2.15666       -1.10721        1.02131
C          2.34888        2.82150        0.91196
C          4.19609        1.50124        0.30546
O          2.81031        1.49271        0.66276
C          2.51006        3.80071       -0.26211
C          4.89221        0.15302        0.47715
H          1.26980        2.79237        1.13486
H          2.84415        3.23116        1.82291
H          4.32141        1.83401       -0.74670
H          4.76770        2.18141        0.98116
H          4.45431       -0.62522       -0.14682
H          5.95188        0.24951        0.15576
H          4.87403       -0.18660        1.52946
H          2.00378        3.40639       -1.16568
H          2.04889        4.77514        0.01018
H          3.57859        4.00181       -0.48817
H         -2.46535        1.16318        2.75854
C         -4.09493        1.72138        1.69550
C         -2.72971        1.03913        1.70471
C         -5.04118        1.01640        2.66501
H         -3.95676        2.77503        2.04584
H         -4.50939        1.75521        0.66780
H         -5.22072       -0.00834        2.29584
H         -4.58284        0.96222        3.67913
C         -6.36662        1.75306        2.79386
H         -2.03986        1.71276        1.17219
H         -6.20567        2.75826        3.24174
H         -6.84471        1.86348        1.79968
H         -7.03899        1.17323        3.46071
C         -2.93935        2.94102       -2.05365
C         -1.85253        2.62323       -1.27167
C         -1.76234        1.24079       -1.23123
C         -2.75630        0.74449       -1.94118
N         -3.55970        1.76463       -2.49427
C         -2.96219       -0.69326       -2.23738
N         -2.97560       -1.59175       -1.05608
C         -3.08649       -3.02492       -1.54494
H         -1.18617        3.32767       -0.79437
H         -3.26958        3.93997       -2.30224
H         -1.00354        0.65447       -0.72792
H         -2.18996       -0.99884       -2.94497
H         -3.91315       -0.75481       -2.80295
C         -1.77315       -3.54570       -2.18199
C         -3.38924       -3.90248       -0.36540
C         -4.24507       -3.26927       -2.55465
H         -0.93998       -3.46011       -1.47628
H         -1.86404       -4.62530       -2.43646
H         -1.50444       -3.02499       -3.12012
H         -4.35394       -3.60001        0.09552
H         -3.44190       -4.97897       -0.62901
H         -2.53361       -3.77224        0.28318
H         -5.21179       -2.90895       -2.14255
H         -4.06033       -2.79547       -3.53987
H         -4.34999       -4.35872       -2.76507

