%chk=speciation155.chk
%nprocshared=16
%mem=32GB
#p opt=loose PM7 scf=xqc 

 speciation study

-2 1
Mg         0.93016       -0.07026        0.01362
C         -1.87319        0.49698       -0.89617
C         -3.19062        0.35426       -0.50903
C         -3.17772       -0.32825        0.68896
C         -1.84944       -0.57519        0.97851
N         -1.05984       -0.07026        0.01362
C         -1.33449       -1.29789        2.18400
N         -0.40997       -0.43760        2.94013
C          0.17902       -1.04870        4.15689
H         -4.06167        0.71773       -1.03701
H         -1.52523        1.00345       -1.78591
H         -4.03741       -0.60777        1.28365
H         -2.20431       -1.58423        2.80768
H         -0.81402       -2.20459        1.81966
C          1.06849       -2.26300        3.80667
C          1.06910        0.01361        4.82875
C         -0.91448       -1.46493        5.16435
H          1.86761       -1.96666        3.09281
H          1.55008       -2.66916        4.72244
H          0.48144       -3.09019        3.35924
H          0.47329        0.91422        5.08838
H          1.52163       -0.38541        5.76386
H          1.89392        0.32269        4.15121
H         -1.56074       -0.59501        5.41014
H         -1.54917       -2.28369        4.76822
H         -0.45703       -1.84227        6.10374
C          3.72428       -1.14823        0.07144
C          5.04652       -0.75404        0.12159
C          5.04604        0.62485        0.09408
C          3.72227        1.01025        0.02876
N          2.92016       -0.07026        0.01362
C          3.22123        2.41574        0.00021
N          3.77102        3.09996       -1.17945
C          3.29892        4.48402       -1.40574
H          5.91173       -1.40022        0.18406
H          3.36716       -2.16920        0.09342
H          5.91451        1.27218        0.13045
H          2.11649        2.37344       -0.04255
H          3.54657        2.91706        0.93354
C          3.70739        5.41738       -0.24601
C          3.97349        4.98742       -2.69333
C          1.76989        4.52932       -1.61282
H          4.80936        5.39821       -0.10171
H          3.40156        6.46382       -0.46384
H          3.22025        5.12477        0.70626
H          3.71780        4.32661       -3.54964
H          3.64137        6.02029       -2.93730
H          5.07923        4.99478       -2.57937
H          1.47330        3.84457       -2.43628
H          1.21967        4.24405       -0.69375
H          1.44319        5.55864       -1.87360

