%chk=speciation53.chk
%nprocshared=16
%mem=32GB
#p opt=loose PM7 scf=xqc 

 speciation study

-2 1
Mg         0.92442       -0.45577        0.03156
C          1.25167       -1.80289        2.68655
C         -0.97092       -1.00476        2.35552
O          0.36102       -1.05268        1.86058
C          0.89602       -3.27014        3.01807
C         -1.08269       -0.27554        3.70496
H          2.19125       -1.85229        2.16210
H          1.47446       -1.24165        3.61546
H         -1.59302       -0.44908        1.62523
H         -1.41474       -2.01911        2.42561
H         -0.71178        0.76616        3.61436
H         -2.14227       -0.25495        4.03661
H         -0.51031       -0.79595        4.50128
H          0.86785       -3.93516        2.13658
H          1.70424       -3.69000        3.65181
H         -0.05085       -3.35776        3.58553
H          1.00079        2.19533        0.51715
C         -1.04216        2.23380       -0.16362
C          0.39392        1.68840       -0.26425
C         -1.10311        3.77480       -0.31849
H         -1.67178        1.76003       -0.94499
H         -1.44097        1.96975        0.83769
H         -0.47448        4.25778        0.46122
H         -0.71815        4.08452       -1.31601
C         -2.53318        4.30289       -0.16475
H          0.81227        1.96781       -1.25638
H         -3.18966        3.89166       -0.96034
H         -2.94455        4.02293        0.82834
H         -2.54465        5.41299       -0.24211
C          3.75795       -2.75329       -3.81597
C          2.98033       -3.04944       -4.91086
C          1.74094       -2.45714       -4.71579
C          1.75388       -1.82933       -3.52876
N          3.01822       -1.96330       -2.91580
C          0.58316       -1.10985       -2.90550
N          0.20295       -1.64158       -1.57544
C         -0.24129       -3.07439       -1.52106
H          3.28902       -3.65023       -5.75830
H          4.77293       -3.08337       -3.65346
H          0.89677       -2.52135       -5.38966
H         -0.28799       -1.13491       -3.59410
H          0.86475       -0.04492       -2.78666
C          0.90969       -4.09420       -1.72048
C         -0.80833       -3.30508       -0.13419
C         -1.37414       -3.38402       -2.52694
H          1.75101       -3.89487       -1.02577
H          0.54455       -5.13005       -1.53913
H          1.28370       -4.12919       -2.75510
H         -1.70108       -2.67532        0.05349
H         -1.07020       -4.37293        0.04452
H         -0.02460       -3.00961        0.55480
H         -2.23899       -2.70740       -2.36052
H         -1.03363       -3.28344       -3.57577
H         -1.73179       -4.43172       -2.39910
H          3.26599        0.23832       -1.01853
C          4.04465       -1.38359        0.19846
C          3.08113       -0.20744       -0.01814
C          5.51728       -0.98357        0.06537
H          3.94621       -1.79174        1.21154
H          3.80616       -2.18451       -0.52525
H          5.71556       -0.60373       -0.95874
H          5.76743       -0.18483        0.79977
C          6.40813       -2.19622        0.34303
H          3.28787        0.56584        0.75472
H          6.25414       -2.55638        1.38420
H          6.16211       -3.02171       -0.35862
H          7.47673       -1.92634        0.22001

