%chk=speciation1.chk
%nprocshared=16
%mem=32GB
#p opt=loose PM7 scf=xqc 

 speciation study

-2 1
Mg         1.08305       -0.31812        0.19861
C          0.28108        1.87558        1.90230
C         -0.38289       -0.28872        2.63596
O         -0.05244        0.54087        1.53439
C          1.42130        1.99004        2.92685
C         -1.66964        0.15066        3.36451
H          0.52125        2.41336        0.96919
H         -0.60332        2.42960        2.27581
H         -0.55535       -1.31066        2.24988
H          0.46073       -0.38414        3.34407
H         -2.55004        0.15271        2.69689
H         -1.88680       -0.55574        4.19024
H         -1.57186        1.16237        3.80348
H          2.30101        1.39759        2.60824
H          1.71113        3.05405        3.04234
H          1.09343        1.63373        3.92536
C          0.41956       -1.30695       -2.62152
C         -0.57338       -1.86078       -3.41464
C         -1.66277       -2.04104       -2.60514
C         -1.29564       -1.58131       -1.36137
N         -0.01290       -1.13302       -1.34921
C         -2.23296       -1.54763       -0.20249
N         -2.38076       -0.18485        0.32104
C         -3.14250        0.83869       -0.43454
H         -0.52361       -2.09435       -4.46897
H          1.40408       -1.03684       -2.96885
H         -2.63237       -2.43729       -2.89377
H         -3.22175       -1.98592       -0.45060
H         -1.80394       -2.19134        0.59103
C         -4.57309        0.37008       -0.73965
C         -3.21827        2.08666        0.45753
C         -2.41178        1.24582       -1.73293
H         -5.09609        0.10331        0.20494
H         -5.14369        1.18137       -1.24005
H         -4.58210       -0.50902       -1.41603
H         -2.20133        2.44258        0.70366
H         -3.74781        2.91429       -0.05880
H         -3.75232        1.86281        1.40459
H         -1.36361        1.54394       -1.51026
H         -2.41024        0.43595       -2.48126
H         -2.92718        2.10370       -2.21297
C          1.90384       -4.54071        1.16511
C          1.74161       -3.88437        2.36658
C          2.46209       -2.70451        2.29679
C          3.03408       -2.64446        1.09482
N          2.72949       -3.78105        0.32100
C          3.89941       -1.53731        0.59493
N          3.13456       -0.28102        0.49459
C          3.87660        0.84349       -0.14139
H          1.15793       -4.23801        3.20362
H          1.46629       -5.49100        0.89899
H          2.55335       -1.95763        3.07519
H          4.26516       -1.86045       -0.39904
H          4.77042       -1.42023        1.27680
C          4.47916        0.45868       -1.51255
C          2.88756        1.98168       -0.38068
C          4.99627        1.36315        0.79013
H          3.70435        0.00841       -2.16696
H          4.89200        1.35875       -2.01879
H          5.32929       -0.24725       -1.40414
H          2.58216        2.39813        0.58555
H          3.35575        2.82118       -0.93356
H          2.00494        1.61633       -0.95020
H          4.57968        1.65085        1.77980
H          5.78309        0.59952        0.95818
H          5.48587        2.25980        0.35119

