%chk=speciation12.chk
%nprocshared=16
%mem=32GB
#p opt=loose PM7 scf=xqc 

 speciation study

-2 1
Mg         1.16964        0.04305        0.05001
H          0.32167       -1.22566        2.22719
C         -1.53776       -0.49494        1.43070
C         -0.05203       -0.29633        1.74905
C         -2.38373       -0.69846        2.69716
H         -1.91577        0.37762        0.88242
H         -1.64759       -1.38158        0.77320
H         -2.03417       -1.60255        3.24149
H         -2.28090        0.18329        3.36702
C         -3.86198       -0.87172        2.34527
H          0.09559        0.56145        2.43869
H         -4.24385        0.03227        1.82337
H         -4.00366       -1.75630        1.68826
H         -4.45710       -1.02058        3.27137
C          1.39862        2.18763       -2.01718
C          1.14906        3.48335       -2.43012
C          0.39983        4.06435       -1.45327
C          0.16381        3.07989       -0.49609
N          0.82535        1.92713       -0.81637
C         -0.73349        3.31223        0.68101
N         -1.77951        4.33983        0.43008
C         -2.93966        4.05976       -0.46912
H          1.47120        3.96621       -3.34508
H          1.97397        1.47290       -2.58242
H          0.02433        5.08312       -1.44611
H         -1.16721        2.38026        1.06669
H         -0.08667        3.69495        1.49990
C         -3.69477        2.78055       -0.07250
C         -3.90444        5.25480       -0.34433
C         -2.53898        3.95892       -1.95580
H         -4.03696        2.83006        0.98210
H         -4.58674        2.64399       -0.72479
H         -3.05524        1.89282       -0.21711
H         -3.37697        6.20348       -0.58653
H         -4.76192        5.15153       -1.04661
H         -4.30876        5.33492        0.68662
H         -2.04084        4.89070       -2.29579
H         -1.89547        3.07812       -2.14685
H         -3.43684        3.82650       -2.59639
Mg         3.90148        0.61963       -1.08989
H          0.41712       -2.44742       -0.82225
C          0.98319       -1.61064       -2.74865
C          0.37892       -1.46764       -1.34346
C          0.40746       -2.77466       -3.57575
H          0.86242       -0.65612       -3.29813
H          2.05633       -1.81387       -2.67271
H          0.95212       -2.80006       -4.54573
H          0.58753       -3.74710       -3.06346
C         -1.07964       -2.62849       -3.87351
H         -0.69075       -1.19472       -1.44390
H         -1.67417       -2.70735       -2.94074
H         -1.27551       -1.65165       -4.36342
H         -1.39928       -3.44194       -4.55985
C          2.78891       -0.08158        4.99843
C          4.15498        0.05198        5.11527
C          4.63482        0.43681        3.87516
C          3.60334        0.52042        3.02140
N          2.39123        0.20975        3.68064
C          3.70888        0.89471        1.56001
N          3.26037       -0.14180        0.59006
C          4.03972       -1.43779        0.62949
H          4.73140       -0.12315        6.01679
H          2.11704       -0.37397        5.79408
H          5.67760        0.61393        3.63491
H          4.75725        1.18069        1.33401
H          3.11494        1.81654        1.39316
C          3.83901       -2.27056        1.91733
C          3.56772       -2.31251       -0.52290
C          5.55856       -1.21435        0.38570
H          2.76182       -2.43818        2.12074
H          4.33051       -3.26330        1.80753
H          4.32867       -1.83775        2.79973
H          3.75652       -1.78243       -1.47458
H          4.11549       -3.27913       -0.56315
H          2.50697       -2.55536       -0.38405
H          5.73470       -0.74901       -0.61009
H          6.03762       -0.58582        1.15912
H          6.09875       -2.18838        0.39134

