%chk=speciation17.chk
%nprocshared=16
%mem=32GB
#p opt=loose PM7 scf=xqc 

 speciation study

-2 1
Mg         0.63738       -0.17691       -0.14861
H          2.90274       -0.80913        1.30351
C          3.56870        1.00129        0.34326
C          2.78845       -0.31873        0.31440
C          2.96932        1.96922        1.36456
H          4.63439        0.79902        0.60558
H          3.54259        1.45781       -0.66911
H          1.90704        2.15667        1.10135
H          3.01798        1.51746        2.37946
C          3.71410        3.30414        1.38506
H          3.27836       -0.98123       -0.43169
H          4.77667        3.15889        1.67596
H          3.67334        3.78834        0.38593
H          3.23574        3.98111        2.12453
C         -0.55428        2.96941       -5.47366
C         -0.08293        3.95668       -4.62961
C          0.33185        3.32623       -3.47484
C          0.08519        1.97980       -3.66420
N         -0.43423        1.76171       -4.88295
C          0.32260        0.89004       -2.66187
N         -0.38552        1.10644       -1.38434
C         -1.88948        1.06028       -1.41784
H         -0.05943        5.01970       -4.83041
H         -0.97182        3.12531       -6.45859
H          0.74182        3.79769       -2.59099
H          1.41018        0.87534       -2.44512
H          0.07079       -0.10243       -3.08678
C         -2.40520       -0.26529       -2.01731
C         -2.42724        1.18838        0.01962
C         -2.51029        2.24920       -2.20227
H         -1.96797       -1.12812       -1.47855
H         -3.51295       -0.32933       -1.94329
H         -2.14919       -0.34904       -3.09388
H         -2.09410        2.14387        0.47912
H         -3.54350        1.19824        0.01047
H         -2.10279        0.34159        0.65561
H         -2.12612        3.21849       -1.81673
H         -2.34131        2.19364       -3.28885
H         -3.61783        2.25626       -2.10720
Mg        -1.00191        0.04104       -5.57206
H         -1.01386       -2.17148        0.46940
C          0.77968       -3.05030        1.29861
C          0.06949       -2.21445        0.22930
C          0.68755       -2.40539        2.68384
H          0.31303       -4.06185        1.33151
H          1.84653       -3.17052        1.01271
H          1.15785       -1.40229        2.65322
H         -0.37681       -2.28763        2.98089
C          1.40444       -3.25376        3.73457
H          0.18286       -2.74314       -0.74164
H          0.91238       -4.24491        3.83697
H          2.46881       -3.40533        3.45327
H          1.36983       -2.73816        4.71744
C         -2.52793       -2.47066       -5.74968
C         -2.60066       -3.66786       -6.43631
C         -1.59076       -3.64563       -7.37324
C         -0.94320       -2.43307       -7.21909
N         -1.52241       -1.72040       -6.23297
C          0.21179       -1.96141       -8.04893
N          1.39026       -1.70491       -7.20687
C          2.60658       -1.26288       -7.93497
H         -3.31366       -4.46719       -6.27343
H         -3.18019       -2.17019       -4.94170
H         -1.36143       -4.42382       -8.08909
H          0.42913       -2.74929       -8.79559
H         -0.11408       -1.03710       -8.56438
C          2.38860        0.10892       -8.61013
C          3.74142       -1.11665       -6.90448
C          3.05207       -2.30367       -8.98640
H          2.07996        0.86728       -7.85853
H          3.32577        0.45787       -9.09606
H          1.61390        0.05900       -9.40125
H          3.92188       -2.08070       -6.38127
H          4.68882       -0.80975       -7.40232
H          3.48705       -0.34728       -6.14453
H          3.20268       -3.29574       -8.50892
H          2.31334       -2.40665       -9.80616
H          4.00713       -1.99257       -9.46196

