%chk=speciation61.chk
%nprocshared=16
%mem=32GB
#p opt=loose PM7 scf=xqc 

 speciation study

-2 1
Mg         1.25294       -0.20241        0.49229
C          0.43631        1.87886        2.81654
C         -1.32141        1.54182        1.39026
O          0.09680        1.38838        1.52359
C          1.85173        1.60483        3.12486
C         -1.71472        3.01018        1.11402
H          0.36126        2.98303        2.82960
H         -0.17193        1.42936        3.63779
H         -1.68195        0.85260        0.66011
H         -1.87642        1.20219        2.30755
H         -1.16604        3.41707        0.24239
H         -2.80504        3.09362        0.93587
H         -1.49232        3.67214        1.97875
H          2.43379        2.04788        2.29420
H          2.14026        2.07937        4.08497
H          1.99508        0.51486        3.23605
H          0.36330        0.16480       -1.97358
C          2.23312       -0.17388       -2.81750
C          1.38311        0.29188       -1.62543
C          1.84532       -1.56713       -3.31454
H          2.04019        0.53914       -3.65435
H          3.31078       -0.11464       -2.56054
H          2.02942       -2.31493       -2.52050
H          0.76454       -1.57233       -3.58018
C          2.63672       -1.94829       -4.56635
H          1.61900        1.36747       -1.48075
H          2.46594       -1.21047       -5.37940
H          3.72336       -1.99377       -4.34041
H          2.30345       -2.94524       -4.92533
C         -1.34318       -4.05166       -2.51267
C         -0.72105       -5.28298       -2.58262
C          0.29904       -5.25042       -1.65242
C          0.23706       -3.99981       -1.05704
N         -0.75919       -3.28250       -1.57399
C          1.11121       -3.47502        0.02518
N          0.49374       -2.27137        0.68038
C          0.30250       -2.55101        2.14239
H         -0.98150       -6.10545       -3.23227
H         -2.17402       -3.76226       -3.13177
H          0.98628       -6.06180       -1.42642
H          2.14683       -3.29180       -0.32432
H          1.20207       -4.34264        0.71251
C          1.68391       -2.77981        2.83366
C         -0.32952       -1.33427        2.72901
C         -0.62574       -3.74166        2.51136
H          2.36701       -1.96500        2.55258
H          1.60058       -2.80316        3.94196
H          2.17089       -3.73302        2.53534
H         -1.30649       -1.14283        2.24085
H         -0.44067       -1.37828        3.83172
H          0.37702       -0.57048        2.48774
H         -1.62790       -3.61888        2.06172
H         -0.22224       -4.73550        2.24357
H         -0.75158       -3.77317        3.62067
Mg        -0.86047       -1.53038       -0.79126
H          3.86914       -0.65574       -0.01312
C          4.33006       -0.01142        2.00025
C          3.46610        0.06906        0.72461
C          5.80503        0.31994        1.81797
H          4.01729        0.73059        2.72740
H          4.25249       -1.01221        2.45547
H          6.28751       -0.45832        1.19261
H          5.92716        1.31411        1.33103
C          6.45518        0.38233        3.20854
H          3.57788        1.09246        0.30063
H          6.00407        1.20958        3.80505
H          6.28295       -0.56803        3.75970
H          7.54222        0.56921        3.12862
C         -1.72568        1.39168       -1.66065
C         -2.78215        2.08496       -2.19506
C         -3.74481        1.15355       -2.47886
C         -3.22933       -0.06746       -2.08600
N         -1.99216        0.06462       -1.56150
C         -3.93057       -1.36460       -2.20693
N         -4.02009       -2.04475       -0.90865
C         -4.99429       -1.52501        0.08198
H         -2.83883        3.15615       -2.34985
H         -0.81164        1.86202       -1.33071
H         -4.71586        1.34545       -2.91104
H         -4.91440       -1.26041       -2.70284
H         -3.31677       -1.97465       -2.88715
C         -6.40905       -1.39556       -0.51878
C         -5.02855       -2.54028        1.23242
C         -4.55605       -0.17343        0.68216
H         -6.74139       -2.36950       -0.93708
H         -7.13161       -1.07507        0.25971
H         -6.44678       -0.62741       -1.31806
H         -4.01126       -2.65554        1.67006
H         -5.71643       -2.20045        2.03681
H         -5.36447       -3.53436        0.86874
H         -3.55062       -0.27329        1.13306
H         -4.55623        0.64645       -0.05466
H         -5.25983        0.14286        1.47963

