%chk=speciation72.chk
%nprocshared=16
%mem=32GB
#p opt=loose PM7 scf=xqc 

 speciation study

-2 1
Mg         1.19289       -0.71129       -2.74459
C          0.44484       -3.22781       -2.34302
C          1.96594       -3.12442       -4.12365
O          0.91676       -2.46055       -3.43813
C          1.51016       -3.51870       -1.27588
C          2.40670       -2.31497       -5.31871
H         -0.35242       -2.62055       -1.85969
H         -0.05129       -4.16148       -2.68426
H          2.86174       -3.26980       -3.48550
H          1.60327       -4.10817       -4.50518
H          2.81551       -1.33533       -4.99168
H          3.20777       -2.86664       -5.86763
H          1.55777       -2.14562       -6.02010
H          2.04247       -2.58564       -0.99865
H          1.03148       -3.94757       -0.37255
H          2.24925       -4.26290       -1.63845
H         -0.85625       -0.49894       -4.40260
C          0.00564        1.48047       -4.54891
C         -0.42490        0.27002       -3.72978
C         -1.12440        2.09910       -5.37086
H          0.36711        2.26261       -3.85475
H          0.81299        1.15003       -5.23902
H         -1.55374        1.33800       -6.05672
H         -1.92336        2.46867       -4.69183
C         -0.58974        3.26676       -6.20322
H         -1.19560        0.57151       -2.98871
H         -0.16071        4.05306       -5.54429
H          0.20401        2.91283       -6.89770
H         -1.40910        3.71295       -6.80327
C          4.06506        4.17675       -2.10322
C          3.19690        3.88554       -3.12702
C          3.01999        2.52696       -3.09312
C          3.74435        2.05156       -2.03271
N          4.44493        3.05356       -1.45607
C          3.70655        0.61897       -1.59497
N          2.32273        0.14622       -1.33918
C          1.55171        0.66709       -0.17909
H          2.74061        4.58655       -3.81679
H          4.38341        5.16739       -1.86505
H          2.42578        1.93018       -3.74577
H          4.32655        0.48934       -0.68978
H          4.14434       -0.00245       -2.39591
C          1.07094        2.11462       -0.41843
C          0.29222       -0.20252        0.00565
C          2.36307        0.57417        1.12251
H          0.46925        2.17231       -1.35041
H          0.43563        2.46203        0.42475
H          1.90653        2.83288       -0.48252
H          0.55781       -1.25129        0.24373
H         -0.32890        0.18291        0.84633
H         -0.33548       -0.19384       -0.90673
H          2.69398       -0.47370        1.29738
H          3.25337        1.23215        1.09605
H          1.73121        0.87944        1.98139
Mg         5.78590        3.08968        0.03054
H          6.49787        0.43790       -0.60469
C          7.60065        0.58216        1.22374
C          7.04202        1.23134       -0.05351
C          6.48248        0.00016        2.09514
H          8.28857       -0.25311        0.95244
H          8.18104        1.34446        1.78401
H          5.73459        0.78672        2.28852
H          5.97320       -0.82846        1.55586
C          7.01440       -0.52320        3.42942
H          7.90111        1.51106       -0.69829
H          7.75180       -1.34121        3.27325
H          7.50159        0.29532        4.00286
H          6.17326       -0.91967        4.03962
C          4.62147        2.06015        4.31706
C          3.62397        2.56248        3.51401
C          4.18847        3.52607        2.69457
C          5.48872        3.60171        2.98762
N          5.83220        2.69992        4.01601
C          6.47866        4.55539        2.40107
N          6.20034        4.83982        0.98757
C          7.11459        5.86194        0.37623
H          2.59033        2.25382        3.53796
H          4.50365        1.28873        5.06549
H          3.66600        4.12009        1.95560
H          7.49055        4.12237        2.53006
H          6.38909        5.47331        3.01002
C          8.54475        5.30768        0.25441
C          6.62715        6.22801       -1.03464
C          7.13101        7.19034        1.17999
H          8.53639        4.35450       -0.31535
H          9.20026        6.03240       -0.27564
H          8.99498        5.13001        1.25065
H          5.62414        6.70501       -0.98627
H          7.30603        6.97572       -1.50606
H          6.61119        5.33822       -1.69588
H          6.10116        7.60287        1.27210
H          7.56251        7.07281        2.19283
H          7.75893        7.95267        0.66746

