%chk=speciation158.chk
%nprocshared=16
%mem=32GB
#p opt=loose PM7 scf=xqc 

 speciation study

-2 1
Mg         1.53082        1.54212       -0.08161
C         -1.45389        0.85912       -0.21673
C         -2.15426       -0.32853       -0.14531
C         -1.21641       -1.33489       -0.01406
C          0.01248       -0.70748       -0.01918
N         -0.13441        0.61450       -0.12786
C          1.36319       -1.33240        0.07699
N          2.39651       -0.27662       -0.05037
C          3.21464       -0.31773       -1.27984
H         -3.22913       -0.44167       -0.18205
H         -1.89109        1.84035       -0.31970
H         -1.41120       -2.39596        0.06784
H          1.45022       -2.11284       -0.70401
H          1.45960       -1.83065        1.06390
C          2.32638       -0.16669       -2.53602
C          4.15411        0.88003       -1.21466
C          4.08353       -1.58976       -1.35802
H          1.70924        0.75604       -2.45793
H          2.95124       -0.08990       -3.45092
H          1.64019       -1.02673       -2.66595
H          4.77986        0.85200       -0.29532
H          4.81253        0.94461       -2.10596
H          3.52483        1.77208       -1.18638
H          4.73052       -1.66949       -0.45789
H          3.47811       -2.51277       -1.43933
H          4.74070       -1.54511       -2.25434
C          3.02830        4.20782       -0.47746
C          2.87287        5.54374       -0.17477
C          1.66927        5.66061        0.47864
C          1.14690        4.38981        0.55521
N          1.96682        3.49660       -0.02958
C         -0.13853        4.02609        1.22624
N          0.04564        2.97787        2.24436
C          0.75303        3.32158        3.50356
H          3.57099        6.33748       -0.40330
H          3.89456        3.81604       -0.98416
H          1.23509        6.57124        0.87112
H         -0.65083        4.91552        1.64210
H         -0.80609        3.62610        0.44150
C          0.10980        4.53030        4.21326
C          0.64263        2.09535        4.42672
C          2.25474        3.58456        3.26533
H         -0.96515        4.33373        4.41658
H          0.62125        4.72976        5.17894
H          0.19500        5.45351        3.60430
H          1.06039        1.19420        3.92705
H          1.20433        2.26129        5.37236
H         -0.41805        1.88994        4.68451
H          2.71643        2.73536        2.71661
H          2.43050        4.52012        2.70955
H          2.78528        3.71322        4.23161

