%chk=speciation71.chk
%nprocshared=16
%mem=32GB
#p opt=loose PM7 scf=xqc 

 speciation study

-2 1
Mg         5.35030       -0.91594       -1.15715
C          7.74753       -2.30406       -2.30657
C          7.11451       -2.94350       -0.09454
O          6.98292       -1.99430       -1.13843
C          7.40208       -3.63917       -2.98179
C          8.54019       -3.00659        0.47362
H          7.60131       -1.50650       -3.04675
H          8.83617       -2.24071       -2.09938
H          6.45084       -2.61860        0.73100
H          6.75400       -3.94719       -0.40101
H          8.85803       -2.00134        0.82172
H          8.57198       -3.71417        1.32725
H          9.26789       -3.37733       -0.27830
H          6.33083       -3.68257       -3.24912
H          7.99993       -3.74509       -3.91265
H          7.65599       -4.50262       -2.33538
H          3.29097       -1.19820       -2.91174
C          2.94093       -2.92839       -1.67647
C          3.89461       -1.96269       -2.38179
C          1.95330       -3.56293       -2.67413
H          3.53901       -3.72194       -1.17440
H          2.37579       -2.36347       -0.90131
H          1.35974       -2.76454       -3.16389
H          2.51079       -4.12465       -3.45085
C          0.99174       -4.52042       -1.97194
H          4.45669       -2.51177       -3.16011
H          1.54872       -5.35891       -1.50363
H          0.40945       -3.98540       -1.19236
H          0.27730       -4.94362       -2.71429
C          3.31774        4.65989       -1.69912
C          1.98095        4.51067       -1.39984
C          1.81282        3.20223       -1.01930
C          3.05543        2.60769       -1.08222
N          3.98913        3.50220       -1.49843
C          3.30074        1.17988       -0.67115
N          4.70055        0.87669       -0.32522
C          5.18490        1.34333        1.01840
H          1.21534        5.27604       -1.43219
H          3.77729        5.58828       -2.01347
H          0.88806        2.74177       -0.69409
H          2.98995        0.57144       -1.53695
H          2.60395        0.86664        0.12478
C          4.39738        0.70198        2.16428
C          6.67728        1.00735        1.14748
C          5.06121        2.86829        1.17822
H          4.45166       -0.40149        2.10813
H          4.81258        1.04212        3.13937
H          3.33505        1.02766        2.15251
H          7.27901        1.54808        0.38511
H          7.07013        1.33772        2.13396
H          6.84752       -0.08258        1.04582
H          5.58784        3.29717        0.34215
H          4.01750        3.23949        1.18768
H          5.54716        3.23660        2.10742
Mg         6.00622        3.35605       -1.65027
H          7.74920        1.43432       -2.88100
C          5.74435        0.73741       -3.32542
C          6.76663        1.35971       -2.37495
C          5.49809        1.65586       -4.49674
H          6.05336       -0.25786       -3.70167
H          4.79941        0.59916       -2.78869
H          5.21411        2.65372       -4.10448
H          6.43303        1.73656       -5.08996
C          4.36470        1.13004       -5.36963
H          6.91123        0.62748       -1.55522
H          4.62244        0.13455       -5.79071
H          3.42888        1.04385       -4.77306
H          4.19498        1.84352       -6.19921
C          6.05458        5.82307       -0.03086
C          6.72184        6.73895        0.74455
C          8.04337        6.38878        0.69196
C          8.11914        5.25840       -0.11024
N          6.89418        4.90449       -0.56372
C          9.38565        4.50677       -0.32689
N          9.76084        4.49385       -1.74385
C         11.01287        3.75374       -2.03553
H          6.28132        7.55053        1.30876
H          4.98860        5.81831       -0.14636
H          8.85005        6.88358        1.21528
H         10.17778        5.00137        0.27195
H          9.20372        3.48730        0.05891
C         10.91914        2.28414       -1.57086
C         11.20886        3.76589       -3.56092
C         12.24715        4.43234       -1.39350
H         10.02535        1.79808       -2.01371
H         11.82311        1.71835       -1.87970
H         10.86076        2.20430       -0.46550
H         11.29530        4.80920       -3.93488
H         12.13523        3.21724       -3.84314
H         10.34624        3.28408       -4.06819
H         12.35777        5.47591       -1.75902
H         12.19090        4.44943       -0.28719
H         13.17189        3.87146       -1.65220

