%chk=speciation8.chk
%nprocshared=16
%mem=32GB
#p opt=loose PM7 scf=xqc 

 speciation study

-2 1
Mg         0.69875       -0.08165        0.22379
H         -0.79601       -2.28426       -0.27680
C          0.49813       -3.06207        1.27436
C          0.26621       -2.19995        0.03569
C         -0.32589       -2.54595        2.44821
H          0.21730       -4.11835        1.05406
H          1.57754       -3.03257        1.53541
H         -0.04508       -1.48944        2.63309
H         -1.40928       -2.59441        2.19756
C         -0.05591       -3.36390        3.71188
H          0.88414       -2.62425       -0.78424
H         -0.38210       -4.41564        3.57141
H          1.02507       -3.33869        3.96054
H         -0.60571       -2.94473        4.57671
C          0.69377        2.74538        0.92971
C          0.01320        3.87868        1.32443
C         -1.29008        3.50067        1.51460
C         -1.35293        2.14789        1.23717
N         -0.13127        1.67092        0.87546
C         -2.63223        1.36256        1.31239
N         -2.57336        0.26270        2.28993
C         -2.60723        0.58758        3.74222
H          0.41971        4.87403        1.45325
H          1.74697        2.71568        0.68803
H         -2.10611        4.14461        1.82025
H         -3.49106        2.03403        1.53279
H         -2.82433        0.93739        0.31065
C         -3.72061        1.59145        4.12729
C         -2.90893       -0.72489        4.47239
C         -1.24022        1.11363        4.21978
H         -4.71685        1.21455        3.81061
H         -3.74303        1.72619        5.23311
H         -3.55106        2.59390        3.68675
H         -2.16051       -1.48236        4.19972
H         -2.88526       -0.59361        5.57543
H         -3.90504       -1.12114        4.18079
H         -0.43196        0.40621        3.94409
H         -1.00532        2.10372        3.79037
H         -1.23364        1.23848        5.32366
H          3.11901        0.95926       -0.20115
C          3.48685       -1.05766       -0.86732
C          2.84062       -0.07153        0.10577
C          2.93714       -0.87092       -2.28470
H          4.59024       -0.90087       -0.86915
H          3.28114       -2.09107       -0.51935
H          1.83638       -1.01126       -2.26890
H          3.15724        0.15671       -2.64792
C          3.54209       -1.88261       -3.25584
H          3.25659       -0.24569        1.12107
H          4.64026       -1.73493       -3.34209
H          3.34160       -2.91933       -2.90845
H          3.08563       -1.75274       -4.25918

