%chk=speciation4.chk
%nprocshared=16
%mem=32GB
#p opt=loose PM7 scf=xqc 

 speciation study

-2 1
Mg         1.46698        1.41660        0.11403
C          1.38858        1.03251        2.92631
C          0.05952        2.90836        2.33571
O          1.18246        2.08421        1.98680
C          0.14315        0.23926        3.38502
C          0.31691        3.77290        3.58863
H          2.07948        0.31534        2.45333
H          1.93620        1.42145        3.80976
H         -0.20362        3.58022        1.50808
H         -0.87559        2.32281        2.46606
H          1.13523        4.49620        3.41274
H         -0.59839        4.34242        3.86060
H          0.59469        3.15922        4.46845
H         -0.42594       -0.15108        2.52047
H          0.46626       -0.61428        4.01410
H         -0.53585        0.85277        4.01397
C         -1.54368        0.90750       -0.62280
C         -2.27709       -0.26874       -0.60766
C         -1.40024       -1.27477       -0.25882
C         -0.18131       -0.67740       -0.08951
N         -0.25739        0.65381       -0.31031
C          1.09549       -1.38131        0.31063
N          2.28048       -0.52471        0.06032
C          3.01400       -0.93095       -1.16897
H         -3.33314       -0.37800       -0.80301
H         -1.94001        1.89308       -0.81085
H         -1.63721       -2.32571       -0.14113
H          1.13977       -2.33312       -0.25340
H          1.04279       -1.67617        1.37684
C          2.12666       -0.85442       -2.44057
C          4.11872        0.05602       -1.29085
C          3.69067       -2.31929       -1.05798
H          1.65033        0.14619       -2.53124
H          2.73726       -1.02625       -3.35486
H          1.32636       -1.62210       -2.43426
H          4.78676        0.05202       -0.40117
H          4.72249       -0.09535       -2.21436
H          3.55365        0.98214       -1.29940
H          4.35687       -2.35680       -0.16964
H          2.97270       -3.15688       -0.99938
H          4.31863       -2.50384       -1.96017
C          1.52614        6.19922        1.44817
C          0.43413        6.74517        0.81677
C          0.10167        5.90955       -0.23908
C          0.97277        4.89881       -0.26163
N          1.87599        4.99962        0.81876
C          1.01607        3.82197       -1.32218
N          2.24733        2.99299       -1.28778
C          3.48584        3.75611       -1.83310
H         -0.04402        7.67485        1.09062
H          2.04865        6.61667        2.29818
H         -0.69007        6.07716       -0.95587
H          0.87499        4.28409       -2.31259
H          0.12802        3.17394       -1.20024
C          3.91858        4.98889       -1.00798
C          4.77295        2.90146       -1.88835
C          3.26405        4.21126       -3.30109
H          4.15679        4.69446        0.03706
H          4.84659        5.44138       -1.42160
H          3.18229        5.81080       -1.06272
H          4.69062        2.11229       -2.66075
H          5.65172        3.49159       -2.22960
H          5.04023        2.51810       -0.87919
H          2.98664        3.34146       -3.93580
H          2.49776        5.00085       -3.40492
H          4.19402        4.65588       -3.72091

