%chk=speciation149.chk
%nprocshared=16
%mem=32GB
#p opt=loose PM7 scf=xqc 

 speciation study

-2 1
Mg         1.01503        1.84854        0.38373
C          1.19556        2.10214        3.61172
C         -0.14629        3.62805        2.53096
O          0.87999        2.67451        2.32127
C          0.07037        1.24866        4.24535
C         -0.57762        4.31405        1.26598
H          2.11321        1.53921        3.52713
H          1.50550        2.88775        4.34670
H         -1.06536        3.14750        2.92318
H          0.21437        4.43073        3.21858
H         -0.93403        3.54414        0.56080
H         -1.41205        5.02545        1.47432
H          0.26109        4.88674        0.84601
H         -0.44711        0.58277        3.50951
H          0.48843        0.59474        5.04833
H         -0.71747        1.86824        4.69379
H          5.25096       -2.13300       -2.79969
C          3.50983       -3.19538       -2.03369
C          4.58741       -2.09520       -1.91307
C          2.70246       -3.10397       -3.32691
H          4.00972       -4.18938       -2.02045
H          2.83669       -3.15721       -1.15389
H          2.17872       -2.13847       -3.37884
H          3.40184       -3.20179       -4.18457
C          1.64885       -4.20635       -3.42056
H          5.24048       -2.42536       -1.09011
H          2.11650       -5.20797       -3.31616
H          0.88022       -4.07681       -2.62828
H          1.14754       -4.15291       -4.41081
C         -1.89879        0.93292        0.07488
C         -2.47804       -0.28780       -0.22629
C         -1.44674       -1.19189       -0.37129
C         -0.27522       -0.47897       -0.17032
N         -0.55721        0.80727        0.12280
C          1.11726       -1.06565       -0.31543
N          2.20527       -0.07669        0.00002
C          2.85595       -0.47399        1.30908
H         -3.53386       -0.48749       -0.34004
H         -2.43245        1.85789        0.22294
H         -1.54418       -2.24144       -0.62259
H          1.24232       -1.41520       -1.35955
H          1.17238       -1.97820        0.29305
C          3.72682       -1.75022        1.30147
C          3.75315        0.65666        1.62253
C          1.85319       -0.69375        2.43977
H          4.57628       -1.64573        0.63370
H          4.20434       -1.88893        2.30780
H          3.16063       -2.68378        1.10570
H          3.19569        1.60817        1.60887
H          4.35556        0.54604        2.54414
H          4.41403        0.57827        0.76974
H          1.09614        0.05319        2.27455
H          1.34287       -1.67477        2.42355
H          2.37160       -0.64338        3.42896
Mg         3.88493        0.01719       -1.60898
C         -0.13162        3.87695       -1.94137
C          2.05806        4.46979       -1.03315
O          0.97770        3.51301       -1.02821
C          0.03038        4.02145       -3.54621
C          2.91596        4.40531        0.23919
H         -0.88711        3.08585       -1.81442
H         -0.65053        4.78848       -1.58875
H          2.76485        4.27076       -1.86700
H          1.68536        5.51306       -1.11789
H          3.33857        3.39933        0.34916
H          3.76828        5.12226        0.17060
H          2.37453        4.65692        1.17048
H          0.52444        3.27165       -4.19046
H         -0.96571        3.91341       -4.03520
H          0.53465        4.94571       -3.88525
H          4.22181        0.34330       -4.63872
C          2.80553        1.67283       -3.93832
C          3.39146        0.33408       -3.90427
C          1.79284        1.62406       -2.84922
H          3.61065        2.40712       -3.67037
H          2.37773        2.01099       -4.91722
H          2.23862        1.31581       -1.89796
H          1.74458        2.64446       -2.76222
C          0.41543        0.92502       -3.08286
H          2.61267       -0.32181       -4.33521
H         -0.21601        1.31043       -3.91033
H          0.49742       -0.16546       -3.19987
H         -0.21373        1.09372       -2.20451
C          5.84531        2.22460       -0.01649
C          7.08332        2.80503       -0.07747
C          7.65938        2.40124       -1.23800
C          6.69222        1.56245       -1.85114
N          5.59009        1.42443       -1.09501
C          6.91578        0.91785       -3.15611
N          8.36166        0.83179       -3.39595
C          8.78667        0.41279       -4.73491
H          7.53047        3.46029        0.66424
H          5.22817        2.44958        0.82750
H          8.61951        2.66296       -1.59976
H          6.46907       -0.09391       -3.14291
H          6.40629        1.55806       -3.89809
C          8.38904        1.46786       -5.78924
C         10.31782        0.30963       -4.69528
C          8.19701       -0.96797       -5.09582
H          8.80173        2.46341       -5.50964
H          8.77904        1.18764       -6.78744
H          7.28894        1.56291       -5.88278
H         10.63059       -0.41972       -3.90917
H         10.72585       -0.01808       -5.66899
H         10.76874        1.29346       -4.42955
H          8.47697       -1.71821       -4.32357
H          7.08999       -0.92668       -5.16315
H          8.57758       -1.31348       -6.07721

