%chk=speciation52.chk
%nprocshared=16
%mem=32GB
#p opt=loose PM7 scf=xqc 

 speciation study

-2 1
Mg         1.03997       -0.06493        0.19977
C         -0.95857        1.18384        1.86773
C          0.61945        2.70127        0.91510
O          0.33055        1.36270        1.28823
C         -2.14677        1.88360        1.19425
C          0.95085        3.56091        2.14066
H         -1.19193        0.10427        1.82622
H         -0.91071        1.45630        2.94482
H          1.53880        2.68585        0.29081
H         -0.14872        3.16346        0.27178
H          1.79836        3.11663        2.70345
H          1.23293        4.58749        1.82374
H          0.06992        3.63754        2.81443
H         -2.23235        1.57111        0.13368
H         -3.07435        1.59241        1.73196
H         -2.07231        2.98727        1.26937
H         -0.56477        0.42634       -2.06559
C          1.24890       -0.38875       -2.95057
C          0.53147        0.45506       -1.89801
C          0.90251       -1.83650       -2.70680
H          0.96123       -0.07785       -3.98190
H          2.34777       -0.25012       -2.83808
H          1.21963       -2.03227       -1.66057
H         -0.19466       -1.97535       -2.81954
C          1.64319       -2.79284       -3.60708
H          0.86279        1.50838       -2.05998
H          1.36023       -2.64129       -4.66852
H          2.74537       -2.66507       -3.48597
H          1.41101       -3.83534       -3.31951
C          0.51958       -1.74405        2.53330
C          0.27167       -2.91375        3.21552
C          0.15369       -3.88989        2.26826
C          0.32979       -3.27648        1.03537
N          0.56074       -1.92789        1.18878
C          0.29292       -4.04004       -0.25443
N         -0.46525       -5.29856       -0.10336
C         -0.56509       -6.15302       -1.31492
H          0.19940       -3.03840        4.28683
H          0.66745       -0.79205        3.01863
H         -0.02237       -4.93966        2.46064
H         -0.25566       -3.41466       -0.96518
H          1.34298       -4.23512       -0.56158
C          0.81618       -6.73453       -1.66817
C         -1.51358       -7.32206       -0.99418
C         -1.17463       -5.39678       -2.52181
H          1.22296       -7.30092       -0.79958
H          0.73998       -7.43249       -2.52979
H          1.54410       -5.94800       -1.94599
H         -2.53114       -6.94444       -0.75393
H         -1.60181       -8.00740       -1.86737
H         -1.14561       -7.90911       -0.12676
H         -2.19896       -5.04384       -2.28545
H         -0.58022       -4.52171       -2.82081
H         -1.22530       -6.06599       -3.40786
H          3.50096       -0.66386       -0.58183
C          4.04416        0.28802        1.29148
C          3.15430        0.18004        0.05205
C          3.92062       -0.93935        2.18813
H          5.10125        0.40479        0.96302
H          3.75037        1.19395        1.86490
H          2.88384       -1.00211        2.53356
H          4.17731       -1.86311        1.62577
C          4.80988       -0.83301        3.42206
H          3.28357        1.12098       -0.52486
H          5.88031       -0.82750        3.12910
H          4.57723        0.09441        3.98842
H          4.62284       -1.70511        4.08438

