%chk=speciation73.chk
%nprocshared=16
%mem=32GB
#p opt=loose PM7 scf=xqc 

 speciation study

-2 1
Mg         1.10057       -0.02972        0.39281
C         -0.10319       -2.28344       -0.71203
C         -0.77856       -0.24009       -1.70156
O         -0.40638       -0.91114       -0.50180
C          1.05499       -2.49318       -1.68006
C         -2.03164       -0.82486       -2.37915
H          0.15073       -2.71032        0.27025
H         -0.98923       -2.87903       -1.00713
H         -1.03160        0.80460       -1.43828
H          0.06631       -0.18534       -2.41899
H         -2.89413       -0.80595       -1.68000
H         -2.28378       -0.22369       -3.27735
H         -1.87096       -1.86527       -2.73083
H          1.87615       -1.81340       -1.38801
H          1.39193       -3.55195       -1.65073
H          0.76558       -2.26459       -2.72475
H         -1.35820        0.78289        1.24837
C         -0.39496        2.70035        1.47578
C         -0.35176        1.16181        1.52783
C         -0.70156        3.24047        0.08096
H         -1.17115        3.06850        2.18554
H          0.56899        3.12195        1.79534
H          0.03812        2.84145       -0.64280
H         -1.72334        2.92620       -0.22201
C         -0.61345        4.76928        0.06458
H         -0.17457        0.85638        2.58127
H         -1.32788        5.21555        0.78933
H          0.41674        5.09410        0.33046
H         -0.84844        5.14883       -0.95129
C          2.74543        2.74926        3.99433
C          4.11466        2.84733        4.07970
C          4.64085        2.26941        2.93617
C          3.62544        1.82204        2.18266
N          2.39646        2.07856        2.81339
C          3.75743        1.19979        0.80989
N          3.19587       -0.14187        0.53928
C          3.69311       -1.22500        1.47393
H          4.66070        3.31806        4.88741
H          2.03538        3.13050        4.71692
H          5.69235        2.20564        2.68658
H          4.82052        1.22444        0.48778
H          3.16054        1.86786        0.20566
C          3.40392       -0.97786        2.98251
C          2.96064       -2.52720        1.16130
C          5.20412       -1.45485        1.30543
H          2.32814       -0.76413        3.15877
H          3.67489       -1.87717        3.57903
H          4.03078       -0.19745        3.43678
H          3.11362       -2.84038        0.12921
H          3.31110       -3.36153        1.80721
H          1.88926       -2.38117        1.36519
H          5.41719       -1.73157        0.26486
H          5.79004       -0.55035        1.56804
H          5.55452       -2.28034        1.96416
Mg         3.90491       -0.21918       -1.56255
H          3.95504       -3.12285       -1.75382
C          5.50298       -2.70170       -3.10875
C          4.13741       -2.34498       -2.52001
C          6.57047       -2.48366       -2.04130
H          5.52158       -3.76345       -3.45620
H          5.69598       -2.04892       -3.98078
H          6.47019       -1.44254       -1.67623
H          6.41503       -3.20068       -1.20130
C          7.98344       -2.64285       -2.57548
H          3.37070       -2.53060       -3.30514
H          8.17305       -3.68502       -2.90561
H          8.14393       -1.94300       -3.42244
H          8.69608       -2.38387       -1.76319
C          3.92744        2.74447       -2.33948
C          4.09241        3.77764       -3.23045
C          4.44683        3.21494       -4.41097
C          4.48464        1.83966       -4.19904
N          4.14737        1.52528       -2.90477
C          4.84897        0.91810       -5.32379
N          6.18284        1.29154       -5.84078
C          6.63748        0.62253       -7.08804
H          3.97494        4.83716       -3.02737
H          3.64618        2.95421       -1.34973
H          4.66605        3.74093       -5.33268
H          4.83009       -0.12757       -4.96819
H          4.08361        1.05983       -6.11013
C          5.76943        1.02523       -8.30546
C          8.07989        1.07197       -7.37191
C          6.62575       -0.90831       -6.92031
H          5.79276        2.13284       -8.44604
H          6.16390        0.55796       -9.23545
H          4.71784        0.70939       -8.19967
H          8.74895        0.80830       -6.52523
H          8.47420        0.58177       -8.29030
H          8.13108        2.17188       -7.52576
H          7.25703       -1.19696       -6.05285
H          5.59675       -1.28840       -6.75859
H          7.02649       -1.40549       -7.83279

