%chk=speciation47.chk
%nprocshared=16
%mem=32GB
#p opt=loose PM7 scf=xqc 

 speciation study

-2 1
Mg         0.29001        1.09381        0.07841
H          0.64271        2.97303       -1.84905
C          1.87491        3.90960       -0.37419
C          0.63904        3.09410       -0.74357
C          1.91543        4.17803        1.12976
H          2.78802        3.36118       -0.68947
H          1.84122        4.87947       -0.92262
H          0.99371        4.72146        1.44152
H          1.96231        3.20927        1.66388
C          3.12774        5.02639        1.50314
H         -0.24850        3.70582       -0.48434
H          4.06401        4.52602        1.17720
H          3.06507        6.02828        1.02533
H          3.15835        5.16049        2.60462
C         -5.63729       -0.52837        2.18314
C         -4.83914       -1.65413        2.21819
C         -3.54014       -1.24936        1.95224
C         -3.54870        0.07132        1.75392
N         -4.85584        0.59523        1.89799
C         -2.36435        0.92189        1.38540
N         -1.66074        0.47854        0.14258
C         -2.41688        0.65201       -1.13405
H         -5.18094       -2.66505        2.40231
H         -6.70754       -0.51292        2.34302
H         -2.67234       -1.89682        1.88971
H         -1.69864        0.91978        2.24369
H         -2.66497        1.98270        1.31142
C         -2.92276        2.10122       -1.32534
C         -1.46543        0.31004       -2.28498
C         -3.63623       -0.29479       -1.24046
H         -2.08727        2.82023       -1.30018
H         -3.43360        2.20747       -2.30532
H         -3.66460        2.38969       -0.55352
H         -1.06126       -0.71551       -2.16610
H         -1.99142        0.36789       -3.26093
H         -0.62306        1.02335       -2.30819
H         -3.34871       -1.34541       -1.08123
H         -4.44358       -0.03931       -0.53589
H         -4.10568       -0.21079       -2.24214
Mg        -0.29799       -1.04599        0.01024
H         -1.94484       -2.95269       -0.93561
C         -0.71320       -4.26680        0.22051
C         -0.87624       -3.03508       -0.67150
C         -1.27496       -5.53456       -0.44771
H          0.36476       -4.42753        0.42460
H         -1.25644       -4.08823        1.17277
H         -2.35576       -5.39713       -0.67078
H         -0.73848       -5.73017       -1.40191
C         -1.11766       -6.75044        0.46361
H         -0.31369       -3.19604       -1.61607
H         -0.04522       -6.93272        0.68571
H         -1.66558       -6.59282        1.41652
H         -1.53504       -7.65193       -0.03414
C          2.42077        0.78551       -3.39477
C          3.62679        0.13137       -3.51357
C          3.84092       -0.54478       -2.32992
C          2.80548       -0.31334       -1.52059
N          1.85882        0.52661       -2.13137
C          2.71880       -0.87091       -0.12968
N          1.53403       -0.45112        0.66578
C          1.63612       -0.83231        2.11306
H          4.28245        0.15427       -4.37598
H          1.96955        1.40779       -4.15356
H          4.70896       -1.14910       -2.09309
H          3.64563       -0.51541        0.35751
H          2.75316       -1.97670       -0.20805
C          2.83064       -0.16341        2.83712
C          0.37626       -0.36884        2.81374
C          1.72520       -2.36218        2.29435
H          2.77252        0.94218        2.75552
H          2.81177       -0.43056        3.91744
H          3.81399       -0.50716        2.46418
H         -0.49525       -0.86134        2.33657
H          0.37404       -0.64656        3.88889
H          0.32750        0.73763        2.74214
H          0.83534       -2.83551        1.84970
H          2.63922       -2.79390        1.84089
H          1.73783       -2.63066        3.37252

