%chk=speciation113.chk
%nprocshared=16
%mem=32GB
#p opt=loose PM7 scf=xqc 

 speciation study

-2 1
Mg         0.66845       -0.32377       -0.08044
C          1.28454       -3.07080       -0.72873
C          1.54695       -1.67323       -2.64035
O          0.88757       -1.86844       -1.38740
C          2.79615       -3.32712       -0.66862
C          1.25874       -2.78742       -3.66982
H          0.90593       -2.97795        0.29778
H          0.75713       -3.96461       -1.12461
H          1.16150       -0.74636       -3.09320
H          2.64174       -1.54216       -2.52516
H          0.17430       -2.83491       -3.89987
H          1.81193       -2.57505       -4.61012
H          1.59368       -3.78368       -3.31785
H          3.31146       -2.37558       -0.62206
H          3.06285       -3.95084        0.21187
H          3.18125       -3.80694       -1.58759
H          0.01916       -1.85327        2.13528
C         -1.96645       -1.77966        1.37348
C         -0.59092       -1.10794        1.59961
C         -2.63537       -2.17384        2.69057
H         -2.70747       -1.15286        0.86362
H         -1.83461       -2.66688        0.72457
H         -2.04237       -2.97663        3.17512
H         -2.69138       -1.30038        3.38067
C         -4.06353       -2.64442        2.41479
H         -0.69255       -0.23338        2.27829
H         -4.66809       -1.79564        2.02013
H         -4.06112       -3.45775        1.65915
H         -4.53813       -3.00555        3.34818
C         -0.28775        2.06356       -5.93032
C         -1.38827        1.35229       -5.56242
C         -1.23762        1.08788       -4.21649
C         -0.08601        1.74283       -3.78541
N          0.54112        2.26356       -4.87513
C          0.45519        1.88997       -2.35174
N         -0.35637        1.34100       -1.22596
C         -1.62034        2.10873       -0.81905
H         -2.20189        1.04099       -6.19342
H         -0.07847        2.40918       -6.93731
H         -1.94055        0.51044       -3.65660
H          0.65768        2.96008       -2.16477
H          1.42987        1.38280       -2.31672
C         -2.81574        1.86102       -1.77009
C         -2.07852        1.58388        0.51919
C         -1.47836        3.64300       -0.66960
H         -3.02078        0.77269       -1.87187
H         -3.75164        2.30825       -1.37531
H         -2.67857        2.37869       -2.73538
H         -1.49200        1.92063        1.38803
H         -3.14260        1.79014        0.75709
H         -1.93906        0.54485        0.37856
H         -0.70913        3.90793        0.08267
H         -1.26240        4.13652       -1.63621
H         -2.44901        4.05762       -0.30745
Mg         2.26437        3.16100       -5.29165
C          3.42209       -0.74993        1.52471
C          2.40795        1.26619        1.83341
O          2.47404        0.17280        0.92289
C          2.81389       -1.77827        2.49187
C          1.53438        2.36242        1.31124
H          4.05725       -1.21439        0.77007
H          4.23544       -0.24524        2.09811
H          2.01189        0.94093        2.82478
H          3.40939        1.74068        1.95975
H          0.53569        1.95016        1.21658
H          1.52718        3.19815        2.04433
H          1.89949        2.72057        0.32865
H          2.08710       -2.41450        1.98664
H          3.61177       -2.45287        2.86962
H          2.34276       -1.28373        3.36670
H          4.66906        2.56740       -3.99594
C          3.88169        0.60569       -4.56341
C          3.69904        2.03802       -4.04019
C          4.35752        0.59113       -6.01436
H          4.59272        0.02895       -3.92562
H          2.89906        0.09251       -4.51752
H          4.33805       -0.45473       -6.39144
H          3.65496        1.19724       -6.62603
C          5.78620        1.11416       -6.16022
H          3.38123        1.95429       -2.98275
H          5.88203        2.14928       -5.78508
H          6.48943        0.46903       -5.59260
H          6.07250        1.10940       -7.23124
C          1.17195        4.93020       -7.30146
C          1.27467        5.63343       -8.47756
C          2.56110        5.43862       -8.92887
C          3.17372        4.62809       -8.01237
N          2.32594        4.29190       -6.99896
C          4.60904        4.20876       -8.15513
N          5.49939        5.38806       -8.26908
C          5.84157        6.13490       -7.03987
H          0.50239        6.22286       -8.96660
H          0.28012        4.86709       -6.69116
H          2.98679        5.84829       -9.83987
H          4.91638        3.52330       -7.35385
H          4.68988        3.63795       -9.10189
C          6.35823        5.19405       -5.93786
C          6.96662        7.12652       -7.39959
C          4.65008        6.96397       -6.51279
H          7.20142        4.58203       -6.32529
H          6.70803        5.77343       -5.05879
H          5.55323        4.52635       -5.57334
H          6.62630        7.84663       -8.17666
H          7.27670        7.71313       -6.50550
H          7.85791        6.59219       -7.79088
H          4.30376        7.69184       -7.27791
H          3.79928        6.32707       -6.21385
H          4.94983        7.53124       -5.60443

