%chk=speciation124.chk
%nprocshared=16
%mem=32GB
#p opt=loose PM7 scf=xqc 

 speciation study

-2 1
Mg         0.86534       -0.24197       -0.05968
C         -0.10594        2.48528        1.05573
C         -1.81410        0.86061        1.33010
O         -0.55311        1.18274        0.68270
C         -0.10175        2.79403        2.57144
C         -3.04970        1.73947        0.90330
H          0.93002        2.59848        0.68751
H         -0.70592        3.25499        0.52161
H         -2.04777       -0.21411        1.21405
H         -1.73203        0.89802        2.42942
H         -3.41119        1.61314       -0.13095
H         -3.92922        1.48694        1.53443
H         -2.87285        2.82796        1.01707
H          0.49339        2.03270        3.11599
H          0.32706        3.80011        2.74906
H         -1.12746        2.83905        3.00275
H          3.77308       -0.91176       -0.78335
C          4.73366        0.78688        0.10976
C          3.43643        0.12557       -0.54818
C          5.26311        0.26178        1.47885
H          5.61202        0.78635       -0.59035
H          4.48869        1.85792        0.25585
H          5.80587        1.09888        1.98122
H          4.40501       -0.01608        2.11558
C          6.32299       -0.86076        1.44165
H          3.37772        0.64766       -1.52879
H          5.98696       -1.76045        0.89510
H          7.27690       -0.49693        0.99127
H          6.57953       -1.15457        2.48787
C          1.67850       -2.73833       -5.89168
C          1.40176       -1.38698       -5.90534
C          1.05338       -1.05781       -4.62364
C          1.05105       -2.22446       -3.88181
N          1.51052       -3.27155       -4.65286
C          0.57416       -2.36408       -2.45336
N         -0.17050       -1.16693       -1.91629
C         -1.61670       -1.03816       -2.46069
H          1.43884       -0.70383       -6.75042
H          1.98688       -3.29583       -6.76417
H          0.79385       -0.06231       -4.29062
H          1.44301       -2.56835       -1.79990
H         -0.07401       -3.25635       -2.37924
C         -2.51258       -2.28656       -2.22170
C         -2.30835        0.11875       -1.77415
C         -1.74603       -0.68282       -3.96417
H         -2.63915       -2.51265       -1.14811
H         -3.54825       -2.08117       -2.62220
H         -2.17513       -3.17613       -2.77196
H         -1.72333        1.06311       -1.83116
H         -3.32892        0.32024       -2.19215
H         -2.48863       -0.21309       -0.76663
H         -1.27687        0.30432       -4.20184
H         -1.40320       -1.48870       -4.62786
H         -2.81277       -0.52837       -4.25353
Mg         1.92612       -5.32029       -4.26519
C          1.26708       -6.89511       -6.81615
C         -0.42947       -6.57460       -5.15533
O          0.95596       -6.62330       -5.43944
C          0.49063       -6.07437       -7.86750
C         -1.19819       -7.86537       -5.48294
H          2.34788       -6.70297       -6.97200
H          1.13175       -7.98095       -7.03242
H         -0.51895       -6.43521       -4.05857
H         -0.90024       -5.69268       -5.63689
H         -0.76126       -8.73866       -4.95444
H         -2.25215       -7.74834       -5.15486
H         -1.21054       -8.08455       -6.57223
H          0.60167       -4.99175       -7.67702
H          0.87989       -6.30097       -8.88535
H         -0.58972       -6.32970       -7.88323
H          2.27739       -2.09028        1.55013
C          0.39105       -2.23035        2.55564
C          1.43455       -1.40738        1.80058
C         -0.06878       -3.36941        1.65228
H          0.83117       -2.66073        3.48985
H         -0.45427       -1.57225        2.84674
H         -0.41333       -2.93981        0.69052
H          0.79167       -4.04864        1.45922
C         -1.20923       -4.17524        2.25719
H          1.84945       -0.65693        2.51320
H         -0.90025       -4.65654        3.20928
H         -2.08278       -3.51476        2.43886
H         -1.50380       -4.96594        1.53460
C          7.25084       -4.65472       -0.46916
C          7.47092       -4.46340       -1.81281
C          6.24948       -4.62651       -2.46047
C          5.32110       -4.91169       -1.54538
N          5.89495       -4.96390       -0.25442
C          3.82691       -5.06729       -1.80976
N          3.45010       -6.02374       -2.88395
C          3.53787       -7.48413       -2.53553
H          8.41849       -4.20637       -2.26610
H          8.00167       -4.57393        0.31042
H          6.07250       -4.51255       -3.51410
H          3.46901       -4.06810       -2.12479
H          3.29641       -5.28142       -0.85597
C          2.98317       -7.82441       -1.12612
C          2.71252       -8.27126       -3.55872
C          4.99796       -7.98308       -2.61706
H          1.95600       -7.42628       -0.99250
H          2.94479       -8.92893       -0.97759
H          3.63889       -7.43263       -0.31957
H          3.08855       -8.09140       -4.58772
H          2.76882       -9.36563       -3.35922
H          1.64603       -7.97682       -3.49164
H          5.42494       -7.79308       -3.62346
H          5.64166       -7.49733       -1.85810
H          5.04712       -9.07931       -2.42174

