%chk=speciation36.chk
%nprocshared=16
%mem=32GB
#p opt=loose PM7 scf=xqc 

 speciation study

-2 1
Mg         1.11029       -0.06591        0.24751
H         -0.67053        2.17748        0.44216
C          1.24759        3.06763        0.01492
C          0.39686        1.99768        0.70356
C          1.04880        3.05776       -1.50273
H          0.94898        4.07846        0.37977
H          2.31096        2.90575        0.28418
H          1.20188        2.04519       -1.92410
H         -0.00312        3.33151       -1.72065
C          1.98262        4.07453       -2.17236
H          0.48121        2.17219        1.80071
H          1.92456        5.05365       -1.65273
H          3.04079        3.74075       -2.13951
H          1.69264        4.21923       -3.23326
C          0.58277       -3.00848        0.54104
C         -0.36935       -4.00284        0.40917
C         -1.51782       -3.38587       -0.02260
C         -1.20289       -2.04489       -0.17671
N          0.07066       -1.80129        0.20031
C         -2.13521       -1.02241       -0.74334
N         -1.66178       -0.46318       -2.03478
C         -1.54165       -1.40046       -3.20097
H         -0.24120       -5.06444        0.58807
H          1.60285       -3.17636        0.85953
H         -2.45856       -3.86736       -0.25821
H         -3.14829       -1.45615       -0.87008
H         -2.23182       -0.20523       -0.00073
C         -2.87390       -2.12015       -3.48072
C         -1.15394       -0.60023       -4.46011
C         -0.40437       -2.43044       -3.01669
H         -3.68600       -1.37865       -3.64111
H         -2.78672       -2.75574       -4.38593
H         -3.15649       -2.78840       -2.64250
H         -0.16472       -0.12617       -4.33233
H         -1.06391       -1.29262       -5.33004
H         -1.89551        0.17994       -4.71844
H          0.53114       -1.90831       -2.73456
H         -0.62164       -3.20448       -2.27957
H         -0.23141       -3.01008       -3.94422
Mg        -3.06034        0.91273       -2.39895
H         -5.52084        1.80642       -2.72830
C         -4.53152        3.08959       -4.14941
C         -4.55956        2.35639       -2.80984
C         -3.27144        3.94700       -4.30081
H         -4.59124        2.35270       -4.97827
H         -5.42475        3.75570       -4.20673
H         -3.21757        4.68747       -3.47199
H         -2.37139        3.29752       -4.26063
C         -3.28997        4.70424       -5.62782
H         -4.52746        3.10461       -1.98895
H         -3.32945        3.98926       -6.47662
H         -4.17511        5.37509       -5.67687
H         -2.37303        5.32310       -5.72354
C          3.81510        0.65731        1.22553
C          5.16316        0.39629        1.07812
C          5.27182       -0.58248        0.11917
C          3.98347       -0.85630       -0.30009
N          3.08946       -0.10644        0.38433
C          3.64222       -1.80154       -1.41299
N          2.92316       -1.11864       -2.50718
C          3.64245       -0.09413       -3.31192
H          5.97976        0.87679        1.59962
H          3.38962        1.38291        1.90380
H          6.18729       -1.01253       -0.26774
H          4.55042       -2.30891       -1.79739
H          2.99254       -2.60279       -1.00741
C          4.87557       -0.68479       -4.01358
C          2.66217        0.44010       -4.37372
C          4.07762        1.11428       -2.46936
H          4.58777       -1.52332       -4.68162
H          5.38199        0.09981       -4.61492
H          5.61298       -1.05252       -3.27132
H          1.75481        0.84325       -3.88227
H          3.11871        1.27536       -4.94880
H          2.36136       -0.34922       -5.09548
H          3.23655        1.46810       -1.85908
H          4.91606        0.88999       -1.80573
H          4.45330        1.93525       -3.11063

