%chk=speciation15.chk
%nprocshared=16
%mem=32GB
#p opt=loose PM7 scf=xqc 

 speciation study

-2 1
Mg         0.81917       -0.02699       -0.08427
H          0.52289        1.63641       -2.30773
C         -1.56495        1.38641       -1.71871
C         -0.10812        0.89170       -1.76886
C         -1.95437        2.17863       -2.98454
H         -2.22745        0.50659       -1.58233
H         -1.69314        2.06828       -0.85051
H         -1.31677        3.09316       -3.05908
H         -1.79558        1.56790       -3.89582
C         -3.41585        2.63876       -2.94404
H         -0.03806       -0.01524       -2.36393
H         -4.09301        1.75978       -2.90848
H         -3.60366        3.28061       -2.05662
H         -3.65392        3.22949       -3.85537
C         -2.46408       -4.21681        3.25299
C         -3.42007       -4.55946        2.32025
C         -3.21085       -3.74527        1.23715
C         -2.12117       -2.93619        1.53799
N         -1.67835       -3.22787        2.78119
C         -1.53128       -1.87633        0.62710
N         -0.07170       -2.01080        0.35057
C          0.30766       -3.18250       -0.49750
H         -4.18411       -5.32163        2.42456
H         -2.35087       -4.66985        4.22949
H         -3.78218       -3.74423        0.31110
H         -1.70071       -0.92991        1.15587
H         -2.10641       -1.80770       -0.31742
C         -0.22243       -3.03848       -1.93846
C          1.82821       -3.24805       -0.46201
C         -0.17895       -4.56232        0.02257
H          0.06957       -2.08983       -2.38663
H          0.16711       -3.85241       -2.58716
H         -1.33077       -3.09891       -1.96879
H          2.18223       -3.48480        0.56357
H          2.22141       -4.01714       -1.16268
H          2.22396       -2.26114       -0.69869
H          0.12054       -4.72071        1.08361
H         -1.26751       -4.68406       -0.08455
H          0.25688       -5.37749       -0.58598
Mg        -0.20787       -2.46319        3.79564
H          0.23253        2.16467        1.70317
C          0.45463        0.48005        3.04889
C          0.03284        1.07866        1.69843
C         -0.07286        1.30867        4.23160
H          0.08570       -0.56016        3.10960
H          1.54890        0.43506        3.13492
H          0.29477        2.35431        4.14198
H         -1.18369        1.31829        4.22387
C          0.42536        0.74364        5.56001
H         -1.07123        1.03601        1.64003
H          0.05674       -0.29376        5.70351
H          1.53691        0.74168        5.58447
H          0.05987        1.37536        6.39692
C          2.27014       -2.47662       -4.16257
C          3.42696       -3.15757       -3.85485
C          4.09619       -2.43774       -2.88630
C          3.36575       -1.35203       -2.60747
N          2.18869       -1.31246       -3.38192
C          3.83346       -0.23988       -1.71929
N          3.05181        0.22445       -0.52064
C          3.73984        1.48939       -0.01401
H          3.75747       -4.07722       -4.31822
H          1.54083       -2.78038       -4.89717
H          5.06794       -2.66966       -2.46046
H          3.90447        0.56026       -2.46700
H          4.85469       -0.52802       -1.39960
C          3.83838        2.64422       -1.09537
C          2.95360        2.10544        1.11197
C          5.16372        1.20635        0.52632
H          2.83502        2.84462       -1.52789
H          4.21986        3.56054       -0.63651
H          4.55546        2.41780       -1.90600
H          2.90528        1.38881        1.94690
H          3.43972        3.01903        1.51111
H          1.98616        2.41156        0.71237
H          5.12902        0.43233        1.32433
H          5.88674        0.90634       -0.24424
H          5.59377        2.13258        0.98418

