%chk=speciation91.chk
%nprocshared=16
%mem=32GB
#p opt=loose PM7 scf=xqc 

 speciation study

-2 1
Mg        -0.05440        5.35924       -1.41312
C          0.14353        8.14534       -1.30615
C          0.85127        7.02711        0.68904
O         -0.01209        7.03383       -0.43458
C          1.57576        8.40728       -1.78978
C          0.47473        8.11105        1.70385
H         -0.47345        7.93485       -2.20469
H         -0.29598        9.05890       -0.85224
H          0.71576        6.05277        1.20289
H          1.92230        7.07619        0.40928
H         -0.57885        7.97670        2.03136
H          1.13703        8.03856        2.59167
H          0.59308        9.12538        1.27067
H          1.99782        7.49267       -2.25567
H          1.56419        9.22446       -2.54071
H          2.22909        8.74601       -0.95876
H          5.33693        4.75665       -2.79447
C          6.87594        3.77750       -3.93246
C          5.72029        3.72171       -2.93426
C          8.02274        4.66192       -3.38391
H          7.26380        2.75302       -4.08912
H          6.53775        4.18145       -4.89297
H          7.65923        5.68690       -3.14338
H          8.42866        4.21286       -2.44873
C          9.15944        4.77948       -4.39225
H          6.27735        3.46514       -2.03060
H          9.52939        3.77029       -4.66933
H          8.79936        5.30665       -5.30047
H          9.99801        5.36036       -3.95020
C         -0.88475        3.42717       -3.48984
C         -0.84968        2.09597       -3.86184
C          0.00952        1.47625       -2.98892
C          0.46420        2.45631       -2.13401
N         -0.09780        3.64149       -2.41689
C          1.34242        2.21094       -0.98079
N          2.67034        2.85510       -1.11137
C          3.41699        2.69021        0.19720
H         -1.40623        1.62330       -4.65709
H         -1.50303        4.18706       -3.95023
H          0.25095        0.42057       -2.95224
H          0.78592        2.58271       -0.09396
H          1.46748        1.11381       -0.88349
C          3.52805        1.21838        0.69785
C          4.83020        3.17342       -0.00562
C          2.80865        3.53364        1.34649
H          3.98756        0.56761       -0.05740
H          4.18361        1.15939        1.59422
H          2.55167        0.78681        0.99155
H          4.82242        4.21787       -0.39120
H          5.43306        3.14599        0.92512
H          5.27633        2.43264       -0.68806
H          2.72933        4.60126        1.06370
H          1.82089        3.16019        1.67829
H          3.46109        3.46738        2.24812
Mg         3.75627        2.54060       -3.04850
H          4.31060        0.05853       -2.03375
C          4.57544       -0.82274       -3.93305
C          3.89079        0.23369       -3.02824
C          6.06579       -0.53109       -4.14351
H          4.44126       -1.84162       -3.51202
H          4.08859       -0.88605       -4.92073
H          6.45861       -1.21948       -4.91864
H          6.21354        0.51008       -4.50553
C          6.87170       -0.74421       -2.86793
H          2.81396       -0.04239       -2.98543
H          6.54099       -0.05858       -2.06241
H          6.75359       -1.79676       -2.53236
H          7.94302       -0.54892       -3.07479
C          5.33006        6.62066       -6.21014
C          4.33458        7.09855       -7.05909
C          3.14928        6.48989       -6.68897
C          3.38483        5.67291       -5.65138
N          4.74197        5.75304       -5.27708
C          2.37574        4.74547       -4.98721
N          2.80095        3.32072       -4.90778
C          3.07238        2.65193       -6.22924
H          4.50353        7.78334       -7.88722
H          6.37157        6.88080       -6.25412
H          2.19174        6.62645       -7.18895
H          1.40234        4.81794       -5.52464
H          2.19738        5.10415       -3.95666
C          4.29663        3.19608       -7.01553
C          3.39883        1.22939       -5.91490
C          1.84157        2.63380       -7.16885
H          5.19800        3.22744       -6.37468
H          4.53672        2.53328       -7.87951
H          4.12193        4.17834       -7.48046
H          2.55256        0.75216       -5.37270
H          3.63768        0.62406       -6.81939
H          4.30602        1.28710       -5.29386
H          0.96713        2.17662       -6.66276
H          1.58023        3.64968       -7.51961
H          2.06249        2.02296       -8.07828

