%chk=speciation145.chk
%nprocshared=16
%mem=32GB
#p opt=loose PM7 scf=xqc 

 speciation study

-2 1
Mg         0.36246       -5.23148        0.22716
C          2.71307       -6.42884        1.82517
C          1.99006       -7.87320        0.12868
O          1.61493       -6.77561        0.97262
C          3.91514       -5.79916        1.10677
C          2.07509       -9.24366        0.86312
H          2.33660       -5.78769        2.64801
H          3.12483       -7.30571        2.36570
H          2.98421       -7.72841       -0.33273
H          1.31347       -7.89589       -0.74904
H          1.20715       -9.49426        1.51281
H          2.20573      -10.05945        0.12048
H          2.98937       -9.28907        1.49407
H          3.69386       -5.53699        0.08503
H          4.56836       -5.21875        1.79140
H          4.62279       -6.54249        0.74699
H         -0.75534        2.84578        1.08167
C         -1.35257        1.49367       -0.43524
C         -0.22620        2.13216        0.41277
C         -0.79885        0.66268       -1.58702
H         -2.01622        0.88548        0.21977
H         -1.98325        2.30586       -0.87169
H         -0.20160        1.33176       -2.23941
H         -0.15358       -0.13505       -1.17278
C         -1.89839        0.02746       -2.44560
H          0.39455        2.76206       -0.25319
H         -2.53814       -0.64960       -1.84374
H         -2.54300        0.79933       -2.91773
H         -1.41944       -0.56852       -3.25165
C          0.42039       -0.20443        4.30934
C          0.00611       -1.29431        4.99373
C         -0.04187       -2.34349        4.10223
C          0.31601       -1.81186        2.87323
N          0.66095       -0.45196        2.96389
C          0.30349       -2.70707        1.61721
N         -0.72193       -3.79555        1.57367
C         -2.19502       -3.36802        1.50391
H         -0.26729       -1.38198        6.04531
H          0.56018        0.77544        4.74708
H         -0.34038       -3.35951        4.31702
H          1.26483       -3.24031        1.65497
H          0.31845       -2.10537        0.68918
C         -2.45633       -2.58615        0.22068
C         -3.14742       -4.59689        1.55142
C         -2.67338       -2.48814        2.70461
H         -2.16693       -3.18955       -0.66306
H         -3.53324       -2.31722        0.13077
H         -1.88374       -1.64008        0.23616
H         -3.07424       -5.13868        2.52181
H         -4.21324       -4.25489        1.48285
H         -2.98435       -5.30643        0.72056
H         -2.58703       -3.02451        3.67613
H         -2.16749       -1.50750        2.75962
H         -3.75239       -2.22994        2.60360
Mg         1.37680        1.33591        1.80968
C          1.98273       -4.53079       -2.10226
C         -0.09016       -4.98938       -2.99770
O          0.69554       -5.04985       -1.80632
C          2.01498       -3.02004       -2.28838
C         -1.41566       -5.70436       -2.88023
H          2.58601       -4.71731       -1.24948
H          2.48443       -5.07499       -2.94154
H         -0.30633       -3.93856       -3.28517
H          0.44370       -5.50130       -3.83918
H         -2.04095       -5.20731       -2.11411
H         -1.93424       -5.63697       -3.86423
H         -1.25967       -6.77300       -2.63449
H          1.49600       -2.53772       -1.43595
H          3.07018       -2.67349       -2.31708
H          1.53889       -2.72382       -3.24325
H          1.60960        4.01687        2.31522
C          2.04869        3.82453        4.40995
C          1.39933        3.26665        3.10638
C          3.58873        3.86392        4.47296
H          1.66458        4.85515        4.60658
H          1.70688        3.19146        5.25543
H          3.87751        4.16058        5.50898
H          3.98120        2.84801        4.28302
C          4.27064        4.87108        3.54148
H          0.30658        3.30412        3.31554
H          4.04717        4.65752        2.47811
H          3.97119        5.91375        3.78814
H          5.37209        4.79969        3.69000
C          4.44227        1.00068        1.81563
C          5.68873        1.21292        1.23073
C          5.45649        1.72494       -0.01965
C          4.07995        1.81540       -0.15574
N          3.42870        1.35713        0.97678
C          3.45228        2.46189       -1.36219
N          3.99502        1.97020       -2.65943
C          3.47827        2.70293       -3.85935
H          6.65890        1.03687        1.67509
H          4.30326        0.65604        2.82073
H          6.21417        2.04169       -0.73210
H          2.36819        2.30365       -1.28977
H          3.70254        3.53335       -1.26352
C          3.95685        4.18033       -3.89247
C          3.99362        2.03835       -5.16141
C          1.94141        2.63905       -3.90369
H          5.06704        4.23044       -3.93315
H          3.56588        4.69170       -4.80358
H          3.60066        4.77531       -3.03055
H          3.65137        0.98657       -5.25274
H          3.59391        2.58333       -6.04914
H          5.10144        2.06762       -5.24037
H          1.61515        1.57676       -3.88407
H          1.48269        3.17808       -3.05265
H          1.55279        3.10905       -4.82940

