%chk=speciation30.chk
%nprocshared=16
%mem=32GB
#p opt=loose PM7 scf=xqc 

 speciation study

-2 1
Mg         0.53526        0.12201        0.18085
H          2.73360        0.41590       -1.44391
C          3.58503       -0.93359        0.00534
C          2.66001        0.23967       -0.35064
C          3.14041       -2.23683       -0.66432
H          4.62216       -0.69157       -0.32398
H          3.59244       -1.06451        1.10837
H          2.11180       -2.48305       -0.33140
H          3.14611       -2.11440       -1.76992
C          4.07239       -3.39615       -0.29856
H          3.06347        1.14481        0.15168
H          5.10532       -3.19944       -0.65811
H          4.09498       -3.54525        0.80209
H          3.70765       -4.33165       -0.77330
C         -1.13866       -1.39826        6.16078
C         -0.64883       -2.58344        5.67707
C         -0.05118       -2.28882        4.46337
C         -0.22645       -0.93922        4.24746
N         -0.89361       -0.39441        5.30180
C          0.17371       -0.19763        2.99904
N         -0.46465       -0.72987        1.76509
C         -1.97076       -0.65583        1.66881
H         -0.74069       -3.54873        6.15643
H         -1.68723       -1.26415        7.08325
H          0.40713       -3.01239        3.80062
H          1.27144       -0.31025        2.88646
H         -0.02034        0.88928        3.09833
C         -2.48642        0.78768        1.84846
C         -2.41601       -1.16804        0.29057
C         -2.67877       -1.59037        2.69240
H         -2.11182        1.43342        1.03220
H         -3.59644        0.81367        1.81920
H         -2.16951        1.23015        2.81137
H         -1.98663       -0.56122       -0.53202
H         -3.52499       -1.11372        0.20431
H         -2.12220       -2.22980        0.14102
H         -2.29286       -2.62678        2.60364
H         -2.60337       -1.25239        3.73245
H         -3.77345       -1.61563        2.50448
Mg        -1.65097        1.27441        5.90287
H         -1.24010        1.67555       -1.06679
C          0.46961        2.34213       -2.18205
C         -0.16520        1.87048       -0.87204
C          0.41407        1.25829       -3.26151
H         -0.08011        3.24436       -2.53873
H          1.52485        2.63151       -1.99204
H          0.96883        0.36453       -2.91182
H         -0.64038        0.96545       -3.45633
C          1.03868        1.74907       -4.56701
H         -0.09685        2.70400       -0.14068
H          0.45973        2.60426       -4.97775
H          2.08946        2.06948       -4.40016
H          1.03381        0.92730       -5.31359
C         -3.20614        0.92253        8.62409
C         -4.50555        1.32231        8.89634
C         -4.99298        1.90965        7.74271
C         -3.96614        1.83063        6.83073
N         -2.89180        1.24730        7.35739
C         -3.86855        2.36474        5.44008
N         -2.51920        2.94387        5.26889
C         -2.25577        4.26879        5.90481
H         -5.03513        1.20766        9.83236
H         -2.53030        0.43938        9.31849
H         -5.96888        2.34795        7.58845
H         -4.70338        3.02574        5.14817
H         -3.89928        1.47903        4.76773
C         -2.39578        4.27384        7.44616
C         -0.80314        4.65275        5.57878
C         -3.19207        5.34131        5.31139
H         -1.72663        3.51800        7.90890
H         -2.11428        5.26643        7.85894
H         -3.43965        4.10758        7.77166
H         -0.64708        4.70166        4.48064
H         -0.55059        5.64668        6.01207
H         -0.10044        3.90219        6.00092
H         -3.08701        5.37860        4.20637
H         -4.25306        5.13411        5.55993
H         -2.95454        6.34401        5.72644

