%chk=speciation44.chk
%nprocshared=16
%mem=32GB
#p opt=loose PM7 scf=xqc 

 speciation study

-2 1
Mg         1.24833        1.60271        0.13413
H          2.38200        3.93743        0.90774
C          0.56726        4.64250        0.01053
C          1.73116        3.65909        0.05398
C         -0.25226        4.58677        1.30293
H          0.98531        5.66610       -0.11345
H         -0.08010        4.41218       -0.86291
H         -0.69578        3.57723        1.41792
H          0.40709        4.78868        2.17769
C         -1.36391        5.63423        1.29274
H          2.32892        3.76245       -0.87513
H         -0.93013        6.65607        1.23305
H         -2.03973        5.47496        0.42614
H         -1.95718        5.55847        2.22828
C         -1.68530        0.77544        0.50634
C         -2.28704       -0.47381        0.49424
C         -1.27568       -1.39810        0.29959
C         -0.11131       -0.67282        0.21614
N         -0.36336        0.63450        0.32666
C          1.26998       -1.20987        0.03752
N          2.25765       -0.10851        0.15073
C          3.03539       -0.09939        1.41086
H         -3.33637       -0.68648        0.60971
H         -2.19196        1.72222        0.62753
H         -1.37976       -2.47710        0.23804
H          1.35085       -1.70204       -0.94980
H          1.41883       -2.00195        0.79033
C          3.89139       -1.38129        1.55185
C          3.95843        1.11513        1.32918
C          2.13681        0.06682        2.64616
H          4.55957       -1.51210        0.68052
H          4.49196       -1.32496        2.48277
H          3.29936       -2.30861        1.65020
H          3.37316        2.04415        1.32998
H          4.65312        1.15942        2.19573
H          4.51234        1.09718        0.37336
H          1.52870        0.99269        2.56058
H          1.45490       -0.79704        2.77631
H          2.76368        0.14646        3.56241
Mg         3.62368       -0.24967       -1.27511
H          2.49468       -0.35640       -3.86158
C          1.82363        1.61622       -3.24548
C          2.13057        0.14229       -2.93802
C          0.76690        1.80857       -4.36066
H          1.44005        2.09338       -2.32220
H          2.76755        2.10881       -3.55249
H          1.10494        1.31989       -5.30009
H         -0.20365        1.35474       -4.05882
C          0.53867        3.29639       -4.64814
H          1.16514       -0.34117       -2.67586
H          0.16606        3.81875       -3.74102
H          1.48605        3.77487       -4.97677
H         -0.21288        3.42431       -5.45822
C          6.05399       -1.03678       -2.55234
C          7.42051       -1.18773       -2.64294
C          7.94248       -0.72524       -1.46699
C          6.87521       -0.33790       -0.68067
N          5.69573       -0.50373       -1.36515
C          7.12132        0.20797        0.71768
N          6.78301       -0.73286        1.80779
C          7.75797       -1.79862        2.18108
H          7.98437       -1.59144       -3.47130
H          5.35197       -1.30376       -3.32870
H          8.98760       -0.69791       -1.18865
H          8.16897        0.54107        0.81299
H          6.58976        1.16348        0.84808
C          9.19557       -1.25562        2.36097
C          7.32705       -2.40306        3.53526
C          7.73536       -2.94420        1.15391
H          9.20898       -0.44806        3.12587
H          9.87844       -2.06392        2.70083
H          9.62469       -0.87133        1.41579
H          6.30764       -2.83956        3.47429
H          8.02414       -3.21983        3.83730
H          7.33557       -1.63834        4.34048
H          6.70870       -3.36109        1.06580
H          8.06966       -2.61903        0.16085
H          8.42162       -3.76092        1.46597

