%chk=lowest10_c1_a1_speciation7_speciationDFT39_rank10_E208.73.chk
%nprocshared=20
%mem=40GB
#p opt=loose PM7/gen scf=xqc 

lowest10_c1_a1_speciation7_speciationDFT39_rank10_E208.73 DFT input

0 1
Na     -0.844070000000000     -0.108030000000000     -1.301330000000000
C       1.842600000000000      1.579080000000000     -1.217180000000000
C       2.372400000000000     -0.673520000000000     -0.818070000000000
O       1.425350000000000      0.361170000000000     -0.630390000000000
C       1.403530000000000      1.669570000000000     -2.677020000000000
C       3.389050000000000     -0.713950000000000      0.321400000000000
H       1.358310000000000      2.408870000000000     -0.659780000000000
H       2.938870000000000      1.741990000000000     -1.122850000000000
H       1.822140000000000     -1.638960000000000     -0.829720000000000
H       2.892020000000000     -0.601400000000000     -1.798130000000000
H       2.882850000000000     -0.897760000000000      1.292470000000000
H       4.110810000000000     -1.537800000000000      0.138220000000000
H       3.951840000000000      0.240040000000000      0.381150000000000
H       0.297810000000000      1.601810000000000     -2.755120000000000
H       1.731470000000000      2.642150000000000     -3.099700000000000
H       1.858640000000000      0.855920000000000     -3.277030000000000
C       0.023580000000000     -1.892310000000000     -3.923340000000000
C      -2.342040000000000     -1.952430000000000     -3.608450000000000
O      -1.079410000000000     -1.564610000000000     -3.099150000000000
C       0.004160000000000     -1.197140000000000     -5.284270000000000
C      -2.496650000000000     -3.463350000000000     -3.774620000000000
H       0.927670000000000     -1.528500000000000     -3.391320000000000
H       0.155200000000000     -2.989530000000000     -4.017620000000000
H      -3.092610000000000     -1.634640000000000     -2.852750000000000
H      -2.601190000000000     -1.401650000000000     -4.536270000000000
H      -2.237540000000000     -3.980530000000000     -2.826680000000000
H      -3.550060000000000     -3.696070000000000     -4.036200000000000
H      -1.851880000000000     -3.837620000000000     -4.595050000000000
H      -0.108060000000000     -0.100020000000000     -5.154140000000000
H       0.961070000000000     -1.400480000000000     -5.809520000000000
H      -0.819360000000000     -1.586710000000000     -5.915900000000000
Na      0.858550000000000      0.435040000000000      1.659300000000000
C      -2.383050000000000      0.573600000000000      1.246430000000000
C      -1.650430000000000     -1.648020000000000      1.412460000000000
O      -1.322690000000000     -0.331350000000000      1.016300000000000
C      -1.842860000000000      1.997660000000000      1.150010000000000
C      -2.522690000000000     -2.364360000000000      0.381540000000000
H      -3.162790000000000      0.449540000000000      0.465450000000000
H      -2.827030000000000      0.454380000000000      2.260190000000000
H      -0.695810000000000     -2.211640000000000      1.492800000000000
H      -2.112000000000000     -1.678060000000000      2.423210000000000
H      -2.012820000000000     -2.393150000000000     -0.603610000000000
H      -2.702310000000000     -3.408210000000000      0.715300000000000
H      -3.504350000000000     -1.860240000000000      0.273620000000000
H      -1.358890000000000      2.161930000000000      0.163110000000000
H      -2.671830000000000      2.727320000000000      1.266120000000000
H      -1.094880000000000      2.182650000000000      1.949300000000000
C       0.582880000000000      1.317650000000000      4.824340000000000
C       1.819470000000000      2.896750000000000      3.653360000000000
O       1.055060000000000      1.719320000000000      3.561420000000000
C      -0.212850000000000      0.029850000000000      4.641860000000000
C       2.260460000000000      3.282220000000000      2.245470000000000
H       1.428120000000000      1.106450000000000      5.517310000000000
H      -0.097890000000000      2.086650000000000      5.252990000000000
H       1.212480000000000      3.733750000000000      4.065790000000000
H       2.731380000000000      2.728740000000000      4.269080000000000
H       1.369670000000000      3.457140000000000      1.604700000000000
H       2.870750000000000      4.208780000000000      2.270410000000000
H       2.866430000000000      2.464930000000000      1.797150000000000
H       0.436430000000000     -0.765340000000000      4.215430000000000
H      -0.615300000000000     -0.318450000000000      5.614950000000000
H      -1.060590000000000      0.204740000000000      3.947720000000000
Mg     -6.967940000000000     -0.438360000000000      5.638300000000000
H      -5.314190000000000      1.628510000000000      4.875760000000000
C      -6.897010000000000      1.512900000000000      3.353560000000000
C      -5.895340000000000      0.876330000000000      4.307710000000000
C      -7.819770000000000      2.453020000000000      4.117350000000000
H      -6.368890000000000      2.078600000000000      2.559660000000000
H      -7.489490000000000      0.707140000000000      2.873010000000000
H      -8.213440000000000      1.931490000000000      4.995040000000000
H      -7.238640000000000      3.322580000000000      4.487030000000000
C      -8.987600000000000      2.917480000000000      3.251920000000000
H      -5.196700000000000      0.231480000000000      3.730460000000000
H      -8.614789999999999      3.444970000000000      2.350150000000000
H      -9.604340000000001      2.046670000000000      2.936390000000000
H      -9.633240000000001      3.605680000000000      3.836580000000000
C     -11.028800000000000     -2.605630000000000      2.774780000000000
C     -10.988950000000001     -1.401970000000000      3.452160000000000
C      -9.658110000000001     -1.155280000000000      3.734110000000000
C      -8.971800000000000     -2.177410000000000      3.248450000000000
N      -9.843750000000000     -3.085430000000000      2.629070000000000
C      -7.482190000000000     -2.372090000000000      3.351490000000000
N      -7.120360000000000     -2.804940000000000      4.714930000000000
C      -6.590960000000000     -4.178850000000000      4.842620000000000
H     -11.839300000000000     -0.783850000000000      3.722260000000000
H     -11.914999999999999     -3.102040000000000      2.412300000000000
H      -9.244690000000000     -0.308460000000000      4.242910000000000
H      -6.957070000000000     -1.433600000000000      3.104590000000000
H      -7.155670000000000     -3.080080000000000      2.573180000000000
C      -5.175230000000000     -4.225310000000000      4.245170000000000
C      -6.510930000000000     -4.564620000000000      6.334600000000000
C      -7.531250000000000     -5.212490000000000      4.189050000000000
H      -4.519230000000000     -3.489540000000000      4.759620000000000
H      -4.732660000000000     -5.234160000000000      4.364220000000000
H      -5.182270000000000     -3.965430000000000      3.168540000000000
H      -7.512850000000000     -4.504660000000000      6.803020000000000
H      -6.133740000000000     -5.600780000000000      6.458920000000000
H      -5.821840000000000     -3.933470000000000      6.908740000000000
H      -8.536759999999999     -5.152550000000000      4.657100000000000
H      -7.651590000000000     -5.070540000000000      3.101310000000000
H      -7.130650000000000     -6.236030000000000      4.340540000000000
Mg     -9.068220000000000     -2.552030000000000      6.234100000000000
H     -11.626440000000001     -3.400740000000000      6.673430000000000
C     -10.499680000000000     -5.226440000000000      7.131110000000000
C     -10.713500000000000     -3.931550000000000      6.341590000000000
C     -10.506589999999999     -5.016960000000000      8.648239999999999
H     -11.360260000000000     -5.884940000000000      6.891680000000000
H      -9.575130000000000     -5.752000000000000      6.804170000000000
H     -11.418889999999999     -4.446600000000000      8.927040000000000
H     -10.550420000000001     -6.009660000000000      9.143820000000000
C      -9.269769999999999     -4.300320000000000      9.166230000000001
H     -10.844720000000001     -4.209800000000000      5.273000000000000
H      -8.359019999999999     -4.902290000000000      8.965880000000000
H      -9.177700000000000     -3.317880000000000      8.682050000000000
H      -9.358440000000000     -4.152300000000000     10.263100000000000
C      -4.135630000000000      0.538080000000000      8.335310000000000
C      -3.750540000000000     -0.427990000000000      7.438010000000000
C      -4.811880000000000     -1.298300000000000      7.292230000000000
C      -5.817800000000000     -0.878770000000000      8.073259999999999
N      -5.442440000000000      0.284980000000000      8.771540000000000
C      -7.176630000000000     -1.520880000000000      8.231920000000001
N      -8.164510000000000     -0.978850000000000      7.272830000000000
C      -9.165509999999999     -0.012980000000000      7.816290000000000
H      -2.792920000000000     -0.484010000000000      6.938090000000000
H      -3.534700000000000      1.372540000000000      8.661640000000000
H      -4.794560000000000     -2.146760000000000      6.637140000000000
H      -7.476050000000000     -1.437040000000000      9.287340000000000
H      -7.085510000000000     -2.603430000000000      8.069900000000001
C      -8.460039999999999      1.256220000000000      8.318140000000000
C     -10.188100000000000      0.392040000000000      6.736720000000000
C     -10.012119999999999     -0.650470000000000      8.944100000000001
H      -7.887180000000000      1.730280000000000      7.490340000000000
H      -9.198000000000000      1.988350000000000      8.704829999999999
H      -7.770070000000000      1.021200000000000      9.148190000000000
H     -10.731940000000000     -0.490250000000000      6.338790000000000
H     -10.939489999999999      1.095400000000000      7.158770000000000
H      -9.731980000000000      0.925930000000000      5.907650000000000
H     -10.563940000000001     -1.532580000000000      8.554240000000000
H      -9.428730000000000     -0.959460000000000      9.828180000000000
H     -10.763710000000000      0.077570000000000      9.314819999999999

-C 0
6-31g(d,p)
****
-H 0
6-31g(d,p)
****
-Mg 0
6-31g(d,p)
****
-N 0
6-31+g(d,p)
****
-Na 0
6-31g(d,p)
****
-O 0
6-31+g(d,p)
****


