%chk=lowest10_c1_a1_speciation7_speciationDFT66b_rank07_E208.47.chk
%nprocshared=20
%mem=40GB
#p opt=loose PM7/gen scf=xqc 

lowest10_c1_a1_speciation7_speciationDFT66b_rank07_E208.47 DFT input

0 1
Na     -0.480630000000000     -1.212450000000000     -0.853640000000000
C      -2.501890000000000      0.905750000000000      0.373160000000000
C      -1.114600000000000      2.019700000000000     -1.158990000000000
O      -1.206360000000000      0.994010000000000     -0.188390000000000
C      -3.397530000000000     -0.020540000000000     -0.446150000000000
C      -0.705430000000000      3.349500000000000     -0.528620000000000
H      -2.402360000000000      0.476040000000000      1.392570000000000
H      -2.977370000000000      1.902940000000000      0.503350000000000
H      -0.332420000000000      1.724680000000000     -1.891150000000000
H      -2.054120000000000      2.139800000000000     -1.741030000000000
H       0.287020000000000      3.261900000000000     -0.038440000000000
H      -0.640740000000000      4.125020000000000     -1.320770000000000
H      -1.453160000000000      3.675540000000000      0.223090000000000
H      -2.961340000000000     -1.040740000000000     -0.492590000000000
H      -4.397620000000000     -0.081840000000000      0.031440000000000
H      -3.524960000000000      0.365200000000000     -1.477750000000000
C      -1.615620000000000     -0.932130000000000     -3.931420000000000
C      -0.398790000000000     -2.968140000000000     -3.662510000000000
O      -0.782970000000000     -1.724600000000000     -3.105440000000000
C      -2.968750000000000     -1.572890000000000     -4.238590000000000
C       0.436270000000000     -2.836260000000000     -4.935200000000000
H      -1.824360000000000     -0.002400000000000     -3.361500000000000
H      -1.090730000000000     -0.605100000000000     -4.852110000000000
H       0.247680000000000     -3.461660000000000     -2.904930000000000
H      -1.266630000000000     -3.645730000000000     -3.800890000000000
H       1.298870000000000     -2.159860000000000     -4.757560000000000
H       0.816950000000000     -3.837160000000000     -5.227690000000000
H      -0.178960000000000     -2.448650000000000     -5.772000000000000
H      -3.476540000000000     -1.868910000000000     -3.296420000000000
H      -3.605530000000000     -0.837630000000000     -4.774140000000000
H      -2.847820000000000     -2.458420000000000     -4.894450000000000
Na      0.586100000000000      1.256030000000000      1.326270000000000
C       1.530430000000000     -1.878380000000000      1.340770000000000
C       2.656080000000000     -0.667160000000000     -0.321710000000000
O       1.471550000000000     -0.791930000000000      0.439400000000000
C       0.406950000000000     -1.729950000000000      2.362800000000000
C       2.707350000000000     -1.661720000000000     -1.481180000000000
H       1.373000000000000     -2.832670000000000      0.794910000000000
H       2.490250000000000     -1.907670000000000      1.903810000000000
H       2.658100000000000      0.355390000000000     -0.757200000000000
H       3.568270000000000     -0.734790000000000      0.309980000000000
H       1.828360000000000     -1.527850000000000     -2.144630000000000
H       3.628900000000000     -1.485890000000000     -2.075650000000000
H       2.726900000000000     -2.704490000000000     -1.107300000000000
H      -0.576860000000000     -1.667250000000000      1.849770000000000
H       0.397080000000000     -2.604910000000000      3.046500000000000
H       0.553420000000000     -0.810600000000000      2.967690000000000
C       2.391620000000000      1.903680000000000      4.009880000000000
C       0.142590000000000      2.281020000000000      4.445840000000000
O       1.080320000000000      1.809700000000000      3.509120000000000
C       3.344410000000000      1.396200000000000      2.933250000000000
C      -1.248270000000000      2.111970000000000      3.844660000000000
H       2.657200000000000      2.960780000000000      4.236260000000000
H       2.515620000000000      1.262520000000000      4.911060000000000
H       0.186310000000000      1.686610000000000      5.386010000000000
H       0.301790000000000      3.362790000000000      4.654030000000000
H      -1.437520000000000      1.039230000000000      3.625340000000000
H      -2.022570000000000      2.474880000000000      4.551970000000000
H      -1.328000000000000      2.688580000000000      2.897410000000000
H       3.250210000000000      2.015390000000000      2.014840000000000
H       4.393640000000000      1.440210000000000      3.291500000000000
H       3.099290000000000      0.344680000000000      2.677700000000000
Mg      8.838080000000000     -6.032490000000000     -3.210730000000000
C       6.441350000000000     -5.734860000000000     -2.116950000000000
C       5.491970000000000     -4.697190000000000     -0.256840000000000
O       6.546060000000000     -4.670040000000000     -1.191210000000000
C       5.359920000000000     -5.535980000000000     -3.146440000000000
C       5.946170000000000     -4.033390000000000      1.037670000000000
H       7.935830000000000     -6.302300000000000     -0.219160000000000
H       6.391620000000000     -6.740760000000000     -1.650100000000000
H       4.638800000000000     -4.124820000000000     -0.670620000000000
H       5.168770000000000     -5.730510000000000     -0.000050000000000
H       6.288130000000000     -2.995110000000000      0.841310000000000
H       5.098770000000000     -4.004640000000000      1.754280000000000
H       6.779310000000000     -4.603790000000000      1.499780000000000
H       5.479450000000000     -4.549550000000000     -3.624380000000000
H       5.457330000000000     -6.337530000000000     -3.906630000000000
H       4.370150000000000     -5.599810000000000     -2.657370000000000
H       8.875640000000001     -8.474119999999999     -4.315470000000000
C       9.159129999999999     -7.379980000000000     -6.176790000000000
C       8.517609999999999     -7.539910000000000     -4.786240000000000
C      10.680809999999999     -7.189290000000000     -6.129450000000000
H       8.927230000000000     -8.290500000000000     -6.772070000000000
H       8.690709999999999     -6.527080000000000     -6.690390000000000
H      10.924620000000001     -6.289830000000000     -5.527420000000000
H      11.145610000000000     -8.082540000000000     -5.666910000000000
C      11.288970000000001     -7.021480000000000     -7.524790000000000
H       7.417320000000000     -7.607170000000000     -4.923440000000000
H      11.070510000000001     -7.908140000000000     -8.156779999999999
H      10.896280000000001     -6.113540000000000     -8.026550000000000
H      12.392270000000000     -6.916960000000000     -7.439990000000000
C      11.259150000000000     -7.454090000000000     -2.462540000000000
C      12.170930000000000     -7.871810000000000     -1.528890000000000
C      11.759180000000001     -7.350260000000000     -0.326990000000000
C      10.599950000000000     -6.646970000000000     -0.573630000000000
N      10.304190000000000     -6.707890000000000     -1.903430000000000
C       9.801990000000000     -5.978700000000000      0.508360000000000
N       8.447770000000000     -6.531630000000000      0.641340000000000
C       8.247199999999999     -7.969360000000000      0.955650000000000
H      13.031029999999999     -8.492910000000000     -1.713870000000000
H      11.282200000000000     -7.692580000000000     -3.508280000000000
H      12.238870000000000     -7.488430000000000      0.632190000000000
H      10.323449999999999     -6.055940000000000      1.485180000000000
H       9.727180000000001     -4.891750000000000      0.310780000000000
C       9.123749999999999     -8.400869999999999      2.143100000000000
C       6.766320000000000     -8.149800000000001      1.343920000000000
C       8.515169999999999     -8.884630000000000     -0.266270000000000
H       8.935660000000000     -7.740120000000000      3.016240000000000
H       8.905810000000001     -9.450860000000000      2.429950000000000
H      10.199080000000000     -8.342340000000000      1.879590000000000
H       6.103290000000000     -7.854350000000000      0.503770000000000
H       6.545750000000000     -9.211770000000000      1.587800000000000
H       6.510730000000000     -7.522990000000000      2.224290000000000
H       7.917140000000000     -8.559620000000001     -1.144890000000000
H       9.576240000000000     -8.914300000000001     -0.556670000000000
H       8.246240000000000     -9.935470000000000     -0.033340000000000
Mg     10.604350000000000     -3.879380000000000     -5.523300000000000
H      12.986310000000000     -4.686340000000000     -6.318020000000000
C      13.446350000000001     -3.622530000000000     -4.481450000000000
C      12.717219999999999     -3.742510000000000     -5.800710000000000
C      13.007669999999999     -4.742450000000000     -3.541520000000000
H      14.540060000000000     -3.669620000000000     -4.664820000000000
H      13.208270000000001     -2.638500000000000     -4.030890000000000
H      11.907990000000000     -4.708120000000000     -3.421030000000000
H      13.268120000000000     -5.731120000000000     -3.975940000000000
C      13.667059999999999     -4.586430000000000     -2.176060000000000
H      12.956200000000001     -2.885780000000000     -6.465740000000000
H      14.770479999999999     -4.645800000000000     -2.275690000000000
H      13.387490000000000     -3.612450000000000     -1.720120000000000
H      13.329879999999999     -5.392250000000000     -1.498960000000000
C       8.945040000000001     -1.420070000000000     -7.786140000000000
C       9.308619999999999     -2.618320000000000     -8.355580000000000
C       8.889030000000000     -3.618260000000000     -7.505480000000000
C       8.308520000000000     -3.049600000000000     -6.442510000000000
N       8.291290000000000     -1.648860000000000     -6.567240000000000
C       7.873980000000000     -3.772280000000000     -5.201510000000000
N       8.970090000000001     -3.754070000000000     -4.213040000000000
C       9.079300000000000     -2.647060000000000     -3.228400000000000
H       9.856540000000001     -2.744510000000000     -9.279600000000000
H       9.148669999999999     -0.442620000000000     -8.193270000000000
H       9.085509999999999     -4.665160000000000     -7.651090000000000
H       7.697680000000000     -4.836700000000000     -5.460000000000000
H       6.902570000000000     -3.401870000000000     -4.838820000000000
C       7.731490000000000     -1.957590000000000     -2.928550000000000
C       9.595480000000000     -3.233940000000000     -1.901110000000000
C      10.092290000000000     -1.612150000000000     -3.718840000000000
H       6.981540000000000     -2.696610000000000     -2.584450000000000
H       7.853150000000000     -1.201210000000000     -2.124500000000000
H       7.338920000000000     -1.438800000000000     -3.825250000000000
H      10.541950000000000     -3.788260000000000     -2.024300000000000
H       9.774640000000000     -2.435220000000000     -1.148700000000000
H       8.852090000000000     -3.936240000000000     -1.486870000000000
H      11.082830000000000     -2.082500000000000     -3.837680000000000
H       9.790850000000001     -1.185560000000000     -4.688630000000000
H      10.187320000000000     -0.783000000000000     -2.986940000000000

-C 0
6-31g(d,p)
****
-H 0
6-31g(d,p)
****
-Mg 0
6-31g(d,p)
****
-N 0
6-31+g(d,p)
****
-Na 0
6-31g(d,p)
****
-O 0
6-31+g(d,p)
****


