%chk=lowest10_c1_a1_speciation0_speciationDFT45_rank02_E143.43.chk
%nprocshared=20
%mem=40GB
#p opt=loose PM7/gen scf=xqc 

lowest10_c1_a1_speciation0_speciationDFT45_rank02_E143.43 DFT input

0 1
Na     -2.014570000000000      1.197280000000000     -0.923180000000000
C      -0.586160000000000     -0.995150000000000      0.980430000000000
C       0.597750000000000      0.986210000000000      0.979230000000000
O      -0.002250000000000     -0.000200000000000      0.164270000000000
C      -1.225810000000000     -2.062510000000000      0.099350000000000
C       1.214120000000000      2.066410000000000      0.096710000000000
H       0.185260000000000     -1.494000000000000      1.610360000000000
H      -1.387360000000000     -0.559360000000000      1.618520000000000
H      -0.160410000000000      1.475270000000000      1.632500000000000
H       1.414120000000000      0.545140000000000      1.595080000000000
H       0.431830000000000      2.548420000000000     -0.527390000000000
H       1.691490000000000      2.844330000000000      0.730480000000000
H       1.987610000000000      1.626990000000000     -0.568420000000000
H      -0.460190000000000     -2.535230000000000     -0.552010000000000
H      -1.687110000000000     -2.849040000000000      0.734560000000000
H      -2.015610000000000     -1.612900000000000     -0.539390000000000
Na      2.013100000000000     -1.196430000000000     -0.928200000000000
Mg     -3.095130000000000     -6.315430000000000      8.794760000000000
H      -5.482590000000000     -8.460000000000001      8.805470000000000
C      -5.093960000000000     -7.665040000000000     10.839689999999999
C      -4.658900000000000     -8.095549999999999      9.447990000000001
C      -6.168750000000000     -6.577260000000000     10.768870000000000
H      -5.486120000000000     -8.554800000000000     11.371680000000000
H      -4.208860000000000     -7.273630000000000     11.387720000000000
H      -5.772490000000000     -5.689040000000000     10.238759999999999
H      -7.048110000000000     -6.961330000000000     10.209460000000000
C      -6.611770000000000     -6.150950000000000     12.165139999999999
H      -3.807020000000000     -8.807570000000000      9.486910000000000
H      -6.988100000000000     -7.028740000000000     12.731579999999999
H      -5.762780000000000     -5.695710000000000     12.718540000000001
H      -7.426680000000000     -5.400520000000000     12.087479999999999
C      -3.412540000000000     -4.285950000000000     11.166000000000000
C      -3.713410000000000     -2.954140000000000     11.392960000000000
C      -3.883900000000000     -2.372280000000000     10.150630000000000
C      -3.674930000000000     -3.374400000000000      9.229530000000000
N      -3.387110000000000     -4.529290000000000      9.848160000000000
C      -3.735480000000000     -3.301980000000000      7.754520000000000
N      -4.434270000000000     -4.494420000000000      7.253440000000000
C      -5.837990000000000     -4.358510000000000      6.866360000000000
H      -3.806430000000000     -2.468960000000000     12.354170000000000
H      -3.243450000000000     -5.036480000000000     11.928530000000000
H      -4.127000000000000     -1.336350000000000      9.946050000000000
H      -2.689170000000000     -3.388980000000000      7.431880000000000
H      -4.113610000000000     -2.335080000000000      7.363940000000000
C      -5.923040000000000     -3.710520000000000      5.472930000000000
C      -6.436540000000000     -5.774900000000000      6.806910000000000
C      -6.626990000000000     -3.555400000000000      7.909160000000000
H      -5.400560000000000     -4.337140000000000      4.714740000000000
H      -6.982260000000000     -3.593790000000000      5.164200000000000
H      -5.447700000000000     -2.708920000000000      5.471130000000000
H      -6.378390000000000     -6.268370000000000      7.798440000000000
H      -7.494050000000000     -5.749250000000000      6.474410000000000
H      -5.888330000000000     -6.416050000000000      6.104240000000000
H      -6.495300000000000     -4.017900000000000      8.907670000000000
H      -6.278490000000000     -2.505860000000000      7.962900000000000
H      -7.705130000000000     -3.553640000000000      7.656300000000000
Mg     -2.561080000000000     -4.975750000000000      5.793240000000000
H      -0.938520000000000     -3.739280000000000      3.912100000000000
C      -2.146810000000000     -2.084500000000000      4.723070000000000
C      -1.958640000000000     -3.545310000000000      4.294840000000000
C      -1.053540000000000     -1.612740000000000      5.687590000000000
H      -2.097730000000000     -1.446410000000000      3.816910000000000
H      -3.154520000000000     -1.960000000000000      5.174160000000000
H      -1.037940000000000     -2.223980000000000      6.602230000000000
H      -0.067880000000000     -1.707130000000000      5.184140000000000
C      -1.263270000000000     -0.159980000000000      6.106300000000000
H      -2.693740000000000     -3.759750000000000      3.489100000000000
H      -1.275050000000000      0.505270000000000      5.217380000000000
H      -2.221320000000000     -0.051960000000000      6.659190000000000
H      -0.433750000000000      0.154550000000000      6.775030000000000
C      -1.847550000000000     -7.224530000000000      2.828950000000000
C      -3.192270000000000     -6.992680000000000      2.999720000000000
C      -3.474870000000000     -7.206220000000000      4.332560000000000
C      -2.345050000000000     -7.539520000000000      4.960970000000000
N      -1.264780000000000     -7.578820000000000      4.056740000000000
C      -2.201140000000000     -7.751480000000000      6.445350000000000
N      -1.870570000000000     -6.466870000000000      7.104930000000000
C      -0.494590000000000     -6.331080000000000      7.627670000000000
H      -3.888840000000000     -6.680320000000000      2.231910000000000
H      -1.309390000000000     -7.133410000000000      1.897520000000000
H      -4.437670000000000     -7.080390000000000      4.779800000000000
H      -1.472340000000000     -8.563540000000000      6.635200000000000
H      -3.168370000000000     -8.121200000000000      6.849950000000000
C       0.553050000000000     -6.553880000000000      6.525310000000000
C      -0.325450000000000     -4.907380000000000      8.169560000000001
C      -0.266280000000000     -7.310820000000000      8.806220000000000
H       0.380610000000000     -5.842340000000000      5.689740000000000
H       1.572970000000000     -6.388480000000000      6.932130000000000
H       0.517850000000000     -7.588030000000000      6.129950000000000
H      -1.063340000000000     -4.691510000000000      8.964110000000000
H       0.685130000000000     -4.763000000000000      8.605119999999999
H      -0.458690000000000     -4.181470000000000      7.350540000000000
H      -0.982750000000000     -7.112010000000000      9.633330000000001
H      -0.383010000000000     -8.371200000000000      8.509969999999999
H       0.759180000000000     -7.192480000000000      9.214359999999999

-C 0
6-31g(d,p)
****
-H 0
6-31g(d,p)
****
-Mg 0
6-31g(d,p)
****
-N 0
6-31+g(d,p)
****
-Na 0
6-31g(d,p)
****
-O 0
6-31+g(d,p)
****


