%chk=lowest10_c1_a1_speciation0_speciationDFT133_rank01_E178.39.chk
%nprocshared=20
%mem=40GB
#p opt=loose PM7/gen scf=xqc 

lowest10_c1_a1_speciation0_speciationDFT133_rank01_E178.39 DFT input

0 1
Na      1.398780000000000      1.917240000000000      0.711900000000000
C      -0.118880000000000     -0.897710000000000      1.204340000000000
C       1.009580000000000     -0.914150000000000     -0.810120000000000
O       0.100740000000000     -0.194710000000000     -0.001930000000000
C      -1.107200000000000     -0.121310000000000      2.067780000000000
C       1.253370000000000     -0.146450000000000     -2.105330000000000
H      -0.559490000000000     -1.900840000000000      1.003640000000000
H       0.828600000000000     -0.998760000000000      1.780990000000000
H       1.990670000000000     -1.029630000000000     -0.295750000000000
H       0.592970000000000     -1.910960000000000     -1.080420000000000
H       1.685260000000000      0.853330000000000     -1.886750000000000
H       1.965350000000000     -0.707360000000000     -2.748110000000000
H       0.301170000000000     -0.014960000000000     -2.662000000000000
H      -2.076520000000000     -0.006620000000000      1.537690000000000
H      -1.286500000000000     -0.664930000000000      3.018690000000000
H      -0.703830000000000      0.885570000000000      2.306680000000000
Na     -2.145120000000000     -0.420170000000000     -1.265910000000000
Mg      0.232560000000000     -6.478880000000000      5.822460000000000
C      -0.556040000000000     -8.252520000000001      8.046440000000000
C      -2.636730000000000     -7.369660000000000      7.350770000000000
O      -1.244780000000000     -7.343960000000000      7.224470000000000
C      -0.233360000000000     -9.530880000000000      7.293830000000000
C      -3.222040000000000     -6.658100000000000      6.135420000000000
H       0.401560000000000     -7.775120000000000      8.347360000000000
H      -1.095560000000000     -8.478660000000000      8.969060000000001
H      -3.034810000000000     -8.405379999999999      7.383390000000000
H      -2.926950000000000     -6.799870000000000      8.246660000000000
H      -2.982230000000000     -7.220090000000000      5.210140000000000
H      -4.322200000000000     -6.571810000000000      6.238190000000000
H      -2.790500000000000     -5.640310000000000      6.030060000000000
H       0.406890000000000     -9.306089999999999      6.414270000000000
H       0.313000000000000    -10.223570000000000      7.968820000000000
H      -1.171070000000000    -10.015620000000000      6.956040000000000
H      -0.562650000000000     -7.641280000000000      3.549860000000000
C       0.336520000000000     -5.884000000000000      2.555520000000000
C      -0.593020000000000     -6.532120000000000      3.557620000000000
C       1.788920000000000     -6.349200000000000      2.733370000000000
H      -0.027220000000000     -6.152670000000000      1.546990000000000
H       0.278920000000000     -4.781890000000000      2.681890000000000
H       2.177780000000000     -6.065340000000000      3.728840000000000
H       1.849370000000000     -7.454820000000000      2.642650000000000
C       2.681070000000000     -5.707090000000000      1.678870000000000
H      -1.624070000000000     -6.132210000000000      3.510770000000000
H       2.320000000000000     -5.982610000000000      0.666100000000000
H       2.666140000000000     -4.600750000000000      1.785460000000000
H       3.726020000000000     -6.062780000000000      1.797460000000000
C       3.092460000000000     -7.461860000000000      5.841280000000000
C       4.328020000000000     -7.025740000000000      6.264800000000000
C       4.117060000000000     -5.840930000000000      6.955160000000000
C       2.761360000000000     -5.607450000000000      6.920070000000000
N       2.169310000000000     -6.570410000000000      6.218150000000000
C       2.008410000000000     -4.477990000000000      7.562950000000000
N       0.654400000000000     -4.301020000000000      7.002410000000000
C       0.484930000000000     -3.132260000000000      6.119040000000000
H       5.272190000000000     -7.513730000000000      6.077520000000000
H       2.875570000000000     -8.355639999999999      5.266760000000000
H       4.864260000000000     -5.213380000000000      7.415550000000000
H       1.884160000000000     -4.750520000000000      8.610320000000000
H       2.614040000000000     -3.558450000000000      7.583510000000000
C       1.563410000000000     -3.125340000000000      5.028860000000000
C      -0.884940000000000     -3.220540000000000      5.416760000000000
C       0.518130000000000     -1.835030000000000      6.946580000000000
H       1.505690000000000     -4.075570000000000      4.473670000000000
H       1.409870000000000     -2.280330000000000      4.330500000000000
H       2.583090000000000     -3.043270000000000      5.449500000000000
H      -1.714150000000000     -3.209850000000000      6.130950000000000
H      -1.038290000000000     -2.349950000000000      4.745950000000000
H      -0.976490000000000     -4.145080000000000      4.817420000000000
H      -0.270870000000000     -1.852600000000000      7.727580000000000
H       1.492030000000000     -1.695360000000000      7.449420000000000
H       0.348170000000000     -0.954200000000000      6.295460000000000
Mg     -0.889220000000000     -4.667970000000000      9.036080000000000
C      -0.847160000000000     -2.509350000000000     11.223850000000001
C       1.317050000000000     -2.100470000000000     10.325300000000000
O       0.138420000000000     -2.876220000000000     10.281260000000000
C      -1.535000000000000     -1.191790000000000     10.886369999999999
C       2.019360000000000     -2.099500000000000     11.679980000000000
H      -1.600750000000000     -3.314340000000000     11.205570000000000
H      -0.475300000000000     -2.518160000000000     12.263970000000000
H       2.023800000000000     -2.582570000000000      9.623930000000000
H       1.141270000000000     -1.076560000000000      9.937450000000000
H       2.145540000000000     -3.137000000000000     12.052930000000000
H       3.018630000000000     -1.634480000000000     11.565280000000000
H       1.447170000000000     -1.502720000000000     12.416449999999999
H      -1.947030000000000     -1.208100000000000      9.861390000000000
H      -2.370960000000000     -1.029060000000000     11.598160000000000
H      -0.821740000000000     -0.350510000000000     10.970590000000000
H      -2.414060000000000     -2.571630000000000      8.205539999999999
C      -3.956670000000000     -3.470480000000000      9.416240000000000
C      -2.773330000000000     -3.588810000000000      8.453030000000000
C      -4.989370000000000     -2.426860000000000      8.965600000000000
H      -4.457130000000000     -4.452670000000000      9.520940000000000
H      -3.597350000000000     -3.145980000000000     10.406829999999999
H      -5.788140000000000     -2.385320000000000      9.736720000000000
H      -4.509540000000000     -1.424410000000000      8.913190000000000
C      -5.632960000000000     -2.747100000000000      7.618390000000000
H      -3.149330000000000     -4.048360000000000      7.524760000000000
H      -4.879920000000000     -2.730700000000000      6.803500000000000
H      -6.121030000000000     -3.743390000000000      7.653890000000000
H      -6.400030000000000     -1.978090000000000      7.388900000000000
C      -3.339410000000000     -9.585410000000000     11.092180000000001
C      -3.533630000000000     -9.231479999999999     12.413360000000001
C      -3.188260000000000     -7.898080000000000     12.531400000000000
C      -2.800940000000000     -7.517760000000000     11.329010000000000
N      -2.914270000000000     -8.578550000000000     10.422390000000000
C      -2.290700000000000     -6.164020000000000     10.970030000000000
N      -0.923410000000000     -6.211060000000000     10.446109999999999
C       0.191960000000000     -6.506470000000000     11.408840000000000
H      -3.871460000000000     -9.880120000000000     13.208069999999999
H      -3.502440000000000    -10.554910000000000     10.649300000000000
H      -3.196480000000000     -7.285560000000000     13.419570000000000
H      -2.383780000000000     -5.429840000000000     11.792070000000001
H      -2.935890000000000     -5.801340000000000     10.167940000000000
C       0.314190000000000     -8.029210000000001     11.598290000000000
C       1.546400000000000     -6.038690000000000     10.849819999999999
C       0.003920000000000     -5.828630000000000     12.784739999999999
H       0.508320000000000     -8.523619999999999     10.625520000000000
H       1.157600000000000     -8.277310000000000     12.274459999999999
H      -0.589790000000000     -8.470599999999999     12.041370000000001
H       1.567270000000000     -4.942420000000000     10.736250000000000
H       2.373050000000000     -6.298520000000000     11.550890000000001
H       1.775690000000000     -6.536470000000000      9.886110000000000
H      -0.025360000000000     -4.728110000000000     12.682620000000000
H      -0.919310000000000     -6.173580000000000     13.288110000000000
H       0.848850000000000     -6.082240000000000     13.460620000000000

-C 0
6-31g(d,p)
****
-H 0
6-31g(d,p)
****
-Mg 0
6-31g(d,p)
****
-N 0
6-31+g(d,p)
****
-Na 0
6-31g(d,p)
****
-O 0
6-31+g(d,p)
****


