%chk=lowest10_c1_a1_speciation7_speciationDFT11_rank07_E173.72.chk
%nprocshared=20
%mem=40GB
#p opt=loose PM7/gen scf=xqc 

lowest10_c1_a1_speciation7_speciationDFT11_rank07_E173.72 DFT input

0 1
Na     -1.372710000000000     -0.698280000000000      0.200460000000000
C       0.101190000000000      0.800220000000000      2.580160000000000
C      -0.396750000000000      2.385160000000000      0.921260000000000
O      -0.023580000000000      1.047490000000000      1.192850000000000
C      -1.233130000000000      0.372860000000000      3.186750000000000
C       0.827760000000000      3.283680000000000      0.759790000000000
H       0.823450000000000     -0.032980000000000      2.713700000000000
H       0.526310000000000      1.668640000000000      3.130350000000000
H      -0.963530000000000      2.391560000000000     -0.034540000000000
H      -1.083100000000000      2.800240000000000      1.691110000000000
H       1.462320000000000      2.933330000000000     -0.081300000000000
H       0.494490000000000      4.320430000000000      0.542730000000000
H       1.432770000000000      3.295450000000000      1.689480000000000
H      -1.605670000000000     -0.549370000000000      2.692910000000000
H      -1.096110000000000      0.167580000000000      4.268900000000000
H      -1.991370000000000      1.174020000000000      3.075060000000000
C      -4.201350000000000      0.957690000000000      0.539360000000000
C      -4.546120000000000     -1.061340000000000     -0.686370000000000
O      -3.620730000000000     -0.160740000000000     -0.105760000000000
C      -5.082570000000000      0.592480000000000      1.733700000000000
C      -5.382510000000000     -0.441650000000000     -1.804500000000000
H      -3.357660000000000      1.559820000000000      0.937430000000000
H      -4.726580000000000      1.620060000000000     -0.178690000000000
H      -3.943800000000000     -1.873280000000000     -1.148500000000000
H      -5.176460000000000     -1.556390000000000      0.079870000000000
H      -4.719940000000000      0.038270000000000     -2.555440000000000
H      -5.975040000000000     -1.237930000000000     -2.301670000000000
H      -6.091970000000000      0.306850000000000     -1.397640000000000
H      -4.520910000000000     -0.051530000000000      2.442840000000000
H      -5.387780000000000      1.522680000000000      2.257700000000000
H      -6.003720000000000      0.072200000000000      1.402400000000000
Na      1.850320000000000      0.526930000000000     -0.148510000000000
C       0.741610000000000     -2.357750000000000     -1.236170000000000
C       0.108720000000000     -0.613670000000000     -2.669280000000000
O       0.417730000000000     -0.986640000000000     -1.341470000000000
C       1.410230000000000     -2.601840000000000      0.113280000000000
C      -1.313040000000000     -1.010320000000000     -3.066530000000000
H      -0.184130000000000     -2.970150000000000     -1.275600000000000
H       1.456580000000000     -2.683720000000000     -2.024590000000000
H       0.174430000000000      0.494580000000000     -2.720740000000000
H       0.855040000000000     -0.999990000000000     -3.396980000000000
H      -2.049190000000000     -0.554220000000000     -2.373000000000000
H      -1.522450000000000     -0.643650000000000     -4.093580000000000
H      -1.434390000000000     -2.112540000000000     -3.059330000000000
H       0.746530000000000     -2.267390000000000      0.939430000000000
H       1.622100000000000     -3.684260000000000      0.241820000000000
H       2.368110000000000     -2.044110000000000      0.176130000000000
C       4.907240000000000     -0.161670000000000     -1.182690000000000
C       4.885750000000000      0.119360000000000      1.121360000000000
O       4.104640000000000      0.046500000000000     -0.046260000000000
C       3.993930000000000     -0.207090000000000     -2.402380000000000
C       3.944650000000000      0.308290000000000      2.305660000000000
H       5.627400000000000      0.675870000000000     -1.321130000000000
H       5.441040000000000     -1.135840000000000     -1.114390000000000
H       5.453560000000000     -0.824970000000000      1.279520000000000
H       5.574210000000000      0.993100000000000      1.082070000000000
H       3.242990000000000     -0.550780000000000      2.371660000000000
H       4.521350000000000      0.373350000000000      3.251540000000000
H       3.354110000000000      1.241780000000000      2.179420000000000
H       3.442930000000000      0.752930000000000     -2.504800000000000
H       4.586230000000000     -0.382980000000000     -3.323990000000000
H       3.256320000000000     -1.028410000000000     -2.290760000000000
Mg     -7.903750000000000     -9.944490000000000     -2.255860000000000
H      -5.309590000000000     -9.232590000000000     -1.189270000000000
C      -5.143500000000000    -11.184150000000001     -2.116350000000000
C      -5.935500000000000    -10.140599999999999     -1.351570000000000
C      -4.511790000000000    -10.666510000000001     -3.421380000000000
H      -4.329320000000000    -11.542450000000001     -1.456850000000000
H      -5.838700000000000    -12.014049999999999     -2.329960000000000
H      -5.280180000000000    -10.258690000000000     -4.112810000000000
H      -3.779780000000000     -9.863289999999999     -3.190630000000000
C      -3.757070000000000    -11.798190000000000     -4.119350000000000
H      -6.237450000000000    -10.519259999999999     -0.359040000000000
H      -2.980870000000000    -12.217010000000000     -3.443540000000000
H      -4.454680000000000    -12.609410000000000     -4.398920000000000
H      -3.263950000000000    -11.429340000000000     -5.042670000000000
C      -4.996600000000000     -5.812860000000000     -5.503440000000000
C      -4.473790000000000     -6.975680000000000     -4.983900000000000
C      -4.521220000000000     -6.872470000000000     -3.605190000000000
C      -5.078240000000000     -5.695260000000000     -3.303150000000000
N      -5.401260000000000     -4.965520000000000     -4.457680000000000
C      -5.335950000000000     -5.194980000000000     -1.916270000000000
N      -6.193340000000000     -6.140200000000000     -1.199710000000000
C      -6.310050000000000     -5.999480000000000      0.273420000000000
H      -4.101150000000000     -7.814240000000000     -5.560010000000000
H      -5.102680000000000     -5.577380000000000     -6.550840000000000
H      -4.187820000000000     -7.612030000000000     -2.894280000000000
H      -4.359180000000000     -5.066070000000000     -1.415620000000000
H      -5.848440000000000     -4.212020000000000     -1.984930000000000
C      -6.861950000000000     -4.602780000000000      0.613170000000000
C      -7.294590000000000     -7.057690000000000      0.786340000000000
C      -4.956870000000000     -6.212360000000000      0.997790000000000
H      -7.825030000000000     -4.437330000000000      0.084080000000000
H      -7.032730000000000     -4.496510000000000      1.705670000000000
H      -6.149500000000000     -3.810750000000000      0.304430000000000
H      -6.918130000000000     -8.078460000000000      0.562340000000000
H      -7.426710000000000     -6.975180000000000      1.888580000000000
H      -8.283590000000000     -6.926380000000000      0.303200000000000
H      -4.555870000000000     -7.230770000000000      0.809490000000000
H      -4.192690000000000     -5.469080000000000      0.697130000000000
H      -5.087310000000000     -6.091040000000000      2.097070000000000
Mg     -6.745630000000000     -7.858600000000000     -2.278460000000000
H      -9.323930000000001     -8.580489999999999     -3.378130000000000
C      -8.313310000000000     -7.303520000000000     -4.807820000000000
C      -8.614540000000000     -7.720600000000000     -3.381000000000000
C      -7.847610000000000     -8.455180000000000     -5.717080000000000
H      -9.239480000000000     -6.876130000000000     -5.238710000000000
H      -7.536670000000000     -6.521670000000000     -4.750930000000000
H      -6.937140000000000     -8.949750000000000     -5.315490000000000
H      -8.654700000000000     -9.213770000000000     -5.803680000000000
C      -7.554340000000000     -7.924520000000000     -7.120510000000000
H      -9.086480000000000     -6.896790000000000     -2.816910000000000
H      -8.455590000000001     -7.428270000000000     -7.540160000000000
H      -6.730410000000000     -7.187700000000000     -7.087600000000000
H      -7.255290000000000     -8.751469999999999     -7.797600000000000
C      -7.022390000000000    -13.506200000000000     -4.300140000000000
C      -7.486870000000000    -12.376640000000000     -4.935620000000000
C      -8.513150000000000    -11.859389999999999     -4.165590000000000
C      -8.646530000000000    -12.638339999999999     -3.087400000000000
N      -7.737040000000000    -13.707179999999999     -3.106850000000000
C      -9.634589999999999    -12.420920000000001     -1.984460000000000
N      -9.430350000000001    -11.100660000000000     -1.387380000000000
C     -10.495050000000001    -10.562139999999999     -0.503840000000000
H      -7.106500000000000    -11.973210000000000     -5.866400000000000
H      -6.221930000000000    -14.143200000000000     -4.642580000000000
H      -9.094860000000001    -10.976770000000000     -4.380310000000000
H     -10.648040000000000    -12.525470000000000     -2.412590000000000
H      -9.477359999999999    -13.201969999999999     -1.210890000000000
C     -10.713240000000001    -11.521490000000000      0.681160000000000
C     -10.034739999999999     -9.203670000000001      0.038870000000000
C     -11.835430000000001    -10.349959999999999     -1.252030000000000
H      -9.752340000000000    -11.689730000000001      1.213380000000000
H     -11.450010000000001    -11.104550000000000      1.400540000000000
H     -11.099959999999999    -12.502010000000000      0.332660000000000
H      -9.877820000000000     -8.486730000000000     -0.794880000000000
H     -10.798060000000000     -8.771120000000000      0.724020000000000
H      -9.084330000000000     -9.316870000000000      0.598150000000000
H     -11.720530000000000     -9.625030000000001     -2.085450000000000
H     -12.249590000000000    -11.293730000000000     -1.657620000000000
H     -12.605829999999999     -9.952439999999999     -0.552990000000000

-C 0
6-31g(d,p)
****
-H 0
6-31g(d,p)
****
-Mg 0
6-31g(d,p)
****
-N 0
6-31+g(d,p)
****
-Na 0
6-31g(d,p)
****
-O 0
6-31+g(d,p)
****


