%chk=lowest10_c1_a1_speciation0_speciationDFT45_rank05_E143.62.chk
%nprocshared=20
%mem=40GB
#p opt=loose PM7/gen scf=xqc 

lowest10_c1_a1_speciation0_speciationDFT45_rank05_E143.62 DFT input

0 1
Na      1.425810000000000      1.619150000000000     -1.316970000000000
C       0.850630000000000     -0.336270000000000      1.194570000000000
C       0.246000000000000     -1.349180000000000     -0.789450000000000
O       0.122090000000000     -0.179400000000000     -0.006100000000000
C       0.706050000000000      0.921690000000000      2.044100000000000
C      -0.530390000000000     -1.172840000000000     -2.090060000000000
H       0.455710000000000     -1.191560000000000      1.786660000000000
H       1.934530000000000     -0.479400000000000      0.982560000000000
H       1.311380000000000     -1.536870000000000     -1.054840000000000
H      -0.181850000000000     -2.228260000000000     -0.255870000000000
H      -0.127550000000000     -0.313320000000000     -2.666920000000000
H      -0.439990000000000     -2.090050000000000     -2.710790000000000
H      -1.605570000000000     -0.993390000000000     -1.876740000000000
H      -0.361560000000000      1.098690000000000      2.294470000000000
H       1.277950000000000      0.806220000000000      2.989590000000000
H       1.101150000000000      1.803740000000000      1.496460000000000
Na     -2.345950000000000     -0.224120000000000      0.765000000000000
Mg     -1.894030000000000      0.296530000000000      7.552750000000000
H      -4.418780000000000     -1.031520000000000      6.093090000000000
C      -2.663850000000000     -0.934480000000000      4.738670000000000
C      -3.536560000000000     -0.403840000000000      5.864920000000000
C      -2.182880000000000     -2.356420000000000      5.039070000000000
H      -3.258530000000000     -0.922690000000000      3.803460000000000
H      -1.784010000000000     -0.264630000000000      4.619120000000000
H      -1.588020000000000     -2.364530000000000      5.973460000000000
H      -3.060510000000000     -3.024190000000000      5.171620000000000
C      -1.312770000000000     -2.892340000000000      3.906730000000000
H      -3.806090000000000      0.662360000000000      5.707950000000000
H      -1.872440000000000     -2.866460000000000      2.947880000000000
H      -0.390150000000000     -2.282400000000000      3.809670000000000
H      -1.020740000000000     -3.941900000000000      4.121770000000000
C       0.787220000000000     -0.734730000000000      6.278680000000000
C       1.870640000000000     -1.535300000000000      6.593070000000000
C       1.685340000000000     -1.960910000000000      7.895560000000000
C       0.499480000000000     -1.394160000000000      8.310890000000001
N      -0.038320000000000     -0.653360000000000      7.336570000000000
C      -0.173590000000000     -1.522950000000000      9.622620000000000
N      -1.615110000000000     -1.701210000000000      9.393150000000000
C      -2.164950000000000     -3.053110000000000      9.486630000000000
H       2.696620000000000     -1.786860000000000      5.941300000000000
H       0.604940000000000     -0.258660000000000      5.324840000000000
H       2.341220000000000     -2.602370000000000      8.469700000000000
H      -0.047260000000000     -0.538550000000000     10.092919999999999
H       0.291540000000000     -2.266540000000000     10.300490000000000
C      -2.343710000000000     -3.430330000000000     10.968019999999999
C      -3.539290000000000     -3.038460000000000      8.794689999999999
C      -1.277740000000000     -4.065920000000000      8.751139999999999
H      -3.041090000000000     -2.723930000000000     11.473220000000000
H      -2.754550000000000     -4.456820000000000     11.059260000000000
H      -1.375230000000000     -3.394090000000000     11.506470000000000
H      -3.439260000000000     -2.759320000000000      7.726080000000000
H      -4.035820000000000     -4.027110000000000      8.868700000000000
H      -4.212310000000000     -2.301010000000000      9.249020000000000
H      -1.124550000000000     -3.730700000000000      7.705960000000000
H      -0.286470000000000     -4.164260000000000      9.234280000000000
H      -1.762030000000000     -5.061690000000000      8.739150000000000
Mg     -2.077900000000000      0.162430000000000     10.869059999999999
H      -1.441530000000000      1.102440000000000     13.396269999999999
C      -0.118720000000000     -0.642750000000000     13.145429999999999
C      -1.442860000000000      0.100290000000000     12.926970000000001
C       1.096870000000000      0.198490000000000     12.741390000000001
H      -0.024990000000000     -0.877370000000000     14.226590000000000
H      -0.139330000000000     -1.603270000000000     12.587180000000000
H       1.050080000000000      0.483270000000000     11.679830000000001
H       1.109340000000000      1.125130000000000     13.353790000000000
C       2.402670000000000     -0.561540000000000     12.958570000000000
H      -2.253780000000000     -0.510760000000000     13.379250000000001
H       2.506900000000000     -0.864140000000000     14.021730000000000
H       2.434430000000000     -1.466470000000000     12.314200000000000
H       3.259360000000000      0.092580000000000     12.689489999999999
C      -5.064490000000000      1.647570000000000     12.593640000000001
C      -5.272390000000000      0.317170000000000     12.289080000000000
C      -4.905490000000000      0.157510000000000     10.971550000000001
C      -4.484480000000000      1.340820000000000     10.542299999999999
N      -4.591870000000000      2.281100000000000     11.579010000000000
C      -3.886390000000000      1.625970000000000      9.185520000000000
N      -2.418370000000000      1.433350000000000      9.231070000000001
C      -1.591270000000000      2.653760000000000      9.126600000000000
H      -5.609100000000000     -0.463880000000000     12.961800000000000
H      -5.250050000000000      2.111400000000000     13.548610000000000
H      -4.921150000000000     -0.759490000000000     10.426869999999999
H      -4.208620000000000      2.626610000000000      8.836390000000000
H      -4.313420000000000      0.907170000000000      8.453560000000000
C      -1.949630000000000      3.671370000000000     10.220990000000000
C      -0.121880000000000      2.254780000000000      9.303330000000001
C      -1.737870000000000      3.286540000000000      7.719610000000000
H      -1.835760000000000      3.204680000000000     11.222550000000000
H      -1.275680000000000      4.551510000000000     10.155680000000000
H      -2.988720000000000      4.039900000000000     10.113700000000000
H       0.186490000000000      1.514890000000000      8.541710000000000
H       0.546390000000000      3.135100000000000      9.201879999999999
H       0.025250000000000      1.819290000000000     10.305320000000000
H      -1.418380000000000      2.574370000000000      6.927080000000000
H      -2.777870000000000      3.592960000000000      7.495030000000000
H      -1.099650000000000      4.190900000000000      7.634060000000000

-C 0
6-31g(d,p)
****
-H 0
6-31g(d,p)
****
-Mg 0
6-31g(d,p)
****
-N 0
6-31+g(d,p)
****
-Na 0
6-31g(d,p)
****
-O 0
6-31+g(d,p)
****


