%chk=lowest10_c1_a1_speciation0_speciationDFT11_rank04_E130.31.chk
%nprocshared=20
%mem=40GB
#p opt=loose PM7/gen scf=xqc 

lowest10_c1_a1_speciation0_speciationDFT11_rank04_E130.31 DFT input

0 1
Na      2.048130000000000      1.147980000000000     -0.925360000000000
C      -0.568210000000000      1.003840000000000      0.979380000000000
C       0.555320000000000     -1.011290000000000      0.979780000000000
O       0.004580000000000      0.002220000000000      0.163940000000000
C      -1.171800000000000      2.090300000000000      0.096660000000000
C       1.182500000000000     -2.085010000000000      0.098300000000000
H      -1.387250000000000      0.583420000000000      1.606410000000000
H       0.207000000000000      1.480700000000000      1.621260000000000
H       1.357000000000000     -0.600590000000000      1.635010000000000
H      -0.237250000000000     -1.497120000000000      1.592240000000000
H       1.991380000000000     -1.648130000000000     -0.525170000000000
H       1.616200000000000     -2.887180000000000      0.733110000000000
H       0.414950000000000     -2.533970000000000     -0.567380000000000
H      -1.963030000000000      1.662450000000000     -0.555030000000000
H      -1.623550000000000      2.883070000000000      0.730650000000000
H      -0.386650000000000      2.549470000000000     -0.540910000000000
Na     -2.045630000000000     -1.147150000000000     -0.929720000000000
Mg     -0.934320000000000     -1.438790000000000      9.428419999999999
H      -1.614810000000000     -4.041480000000000     10.495139999999999
C      -3.387900000000000     -3.209480000000000      9.568020000000001
C      -2.088180000000000     -3.045390000000000     10.332820000000000
C      -3.255510000000000     -4.015390000000000      8.262969999999999
H      -4.105300000000000     -3.735380000000000     10.227530000000000
H      -3.758910000000000     -2.192460000000000      9.354380000000001
H      -2.518080000000000     -3.553940000000000      7.571530000000000
H      -2.926050000000000     -5.050970000000000      8.493740000000001
C      -4.612930000000000     -4.103130000000000      7.565040000000000
H      -2.265030000000000     -2.594530000000000     11.325340000000001
H      -5.363720000000000     -4.565920000000000      8.240880000000001
H      -4.966630000000000     -3.093370000000000      7.285470000000000
H      -4.540090000000000     -4.714640000000000      6.641730000000000
C       1.189410000000000     -6.021170000000000      6.180470000000000
C      -0.079350000000000     -5.892820000000000      6.699630000000000
C       0.033660000000000     -5.902860000000000      8.078290000000001
C       1.331210000000000     -6.008300000000000      8.380900000000000
N       2.125230000000000     -6.093490000000000      7.226190000000000
C       1.893140000000000     -6.035380000000000      9.767620000000001
N       1.503570000000000     -4.820720000000000     10.484890000000000
C       1.684650000000000     -4.790920000000000     11.957929999999999
H      -0.991660000000000     -5.797010000000000      6.123390000000000
H       1.446660000000000     -6.047520000000000      5.133050000000000
H      -0.773640000000000     -5.822300000000000      8.789389999999999
H       1.516100000000000     -6.945670000000000     10.268190000000001
H       3.000450000000000     -6.082380000000000      9.698869999999999
C       3.170520000000000     -5.012030000000000     12.297499999999999
C       1.261020000000000     -3.409250000000000     12.471270000000001
C       0.823510000000000     -5.856160000000000     12.682449999999999
H       3.795140000000000     -4.260300000000000     11.768640000000000
H       3.347740000000000     -4.916550000000000     13.390020000000000
H       3.501930000000000     -6.025780000000000     11.989400000000000
H       0.188790000000000     -3.224770000000000     12.247320000000000
H       1.398720000000000     -3.336350000000000     13.573470000000000
H       1.869380000000000     -2.618590000000000     11.988030000000000
H      -0.258940000000000     -5.694080000000000     12.494380000000000
H       1.084720000000000     -6.889610000000000     12.381580000000000
H       0.994160000000000     -5.804140000000000     13.781689999999999
Mg      0.292370000000000     -3.483570000000000      9.405400000000000
H       0.956990000000000     -0.890470000000000      8.305730000000001
C       1.557820000000000     -2.404090000000000      6.875700000000000
C       1.346910000000000     -1.934770000000000      8.302630000000001
C       0.327840000000000     -2.231660000000000      5.966110000000000
H       2.391180000000000     -1.815870000000000      6.445020000000000
H       1.846410000000000     -3.467630000000000      6.932820000000000
H      -0.555480000000000     -2.773120000000000      6.367970000000000
H       0.073990000000000     -1.153520000000000      5.879380000000000
C       0.640400000000000     -2.751060000000000      4.562580000000000
H       2.296090000000000     -1.938300000000000      8.867150000000001
H       1.519190000000000     -2.217580000000000      4.140810000000000
H       0.867860000000000     -3.832690000000000      4.595590000000000
H      -0.226970000000000     -2.598790000000000      3.887850000000000
C      -4.459190000000000     -0.421290000000000      7.384140000000000
C      -3.248700000000000     -0.583850000000000      6.748410000000000
C      -2.287840000000000      0.046340000000000      7.518610000000000
C      -2.895330000000000      0.551290000000000      8.596800000000000
N      -4.276110000000000      0.297910000000000      8.577260000000001
C      -2.213490000000000      1.298240000000000      9.699840000000000
N      -1.172060000000000      0.461240000000000     10.296989999999999
C      -0.173460000000000      1.114060000000000     11.180529999999999
H      -3.089550000000000     -1.114910000000000      5.817700000000000
H      -5.411140000000000     -0.796100000000000      7.041630000000000
H      -1.232410000000000      0.108800000000000      7.303810000000000
H      -1.797240000000000      2.228250000000000      9.271860000000000
H      -2.968440000000000      1.552440000000000     10.473430000000000
C      -0.895190000000000      1.782660000000000     12.365560000000000
C       0.772880000000000      0.036190000000000     11.723290000000000
C       0.680520000000000      2.168790000000000     10.432410000000001
H      -1.521350000000000      1.034590000000000     12.897760000000000
H      -0.165760000000000      2.212240000000000     13.084970000000000
H      -1.551000000000000      2.607820000000000     12.017060000000001
H       1.315310000000000     -0.458190000000000     10.889550000000000
H       1.529130000000000      0.480970000000000     12.408450000000000
H       0.199620000000000     -0.730260000000000     12.282579999999999
H       1.250920000000000      1.706820000000000      9.599019999999999
H       0.070260000000000      2.999320000000000     10.026790000000000
H       1.409930000000000      2.637240000000000     11.131489999999999

-C 0
6-31g(d,p)
****
-H 0
6-31g(d,p)
****
-Mg 0
6-31g(d,p)
****
-N 0
6-31+g(d,p)
****
-Na 0
6-31g(d,p)
****
-O 0
6-31+g(d,p)
****


