%chk=lowest10_c1_a1_speciation0_speciationDFT133_rank08_E178.85.chk
%nprocshared=20
%mem=40GB
#p opt=loose PM7/gen scf=xqc 

lowest10_c1_a1_speciation0_speciationDFT133_rank08_E178.85 DFT input

0 1
Na     -1.440800000000000      1.645020000000000     -1.265550000000000
C      -0.273710000000000     -1.336010000000000     -0.804780000000000
C      -0.823140000000000     -0.350090000000000      1.208610000000000
O      -0.123000000000000     -0.179290000000000     -0.006910000000000
C       0.491010000000000     -1.153390000000000     -2.111410000000000
C      -0.667930000000000      0.902380000000000      2.064130000000000
H       0.145720000000000     -2.229960000000000     -0.289310000000000
H      -1.344990000000000     -1.502210000000000     -1.060020000000000
H      -1.910910000000000     -0.499590000000000      1.021500000000000
H      -0.406860000000000     -1.206030000000000      1.784640000000000
H      -1.084230000000000      1.785430000000000      1.534170000000000
H      -1.213760000000000      0.773850000000000      3.023460000000000
H       0.404240000000000      1.086720000000000      2.288070000000000
H       1.571740000000000     -0.997310000000000     -1.907920000000000
H       0.376420000000000     -2.058740000000000     -2.745380000000000
H       0.097790000000000     -0.277400000000000     -2.669810000000000
Na      2.360570000000000     -0.248600000000000      0.711170000000000
Mg      2.566900000000000     -4.106100000000000      8.145149999999999
C       1.853200000000000     -6.373130000000000      9.895650000000000
C       2.864290000000000     -7.462530000000000      8.056190000000001
O       2.399120000000000     -6.264010000000000      8.605090000000001
C       2.885950000000000     -6.030460000000000     10.954310000000000
C       3.772030000000000     -7.109190000000000      6.882680000000000
H       1.020760000000000     -5.640550000000000      9.972080000000000
H       1.421170000000000     -7.357800000000000     10.088540000000000
H       3.445450000000000     -8.060510000000001      8.788940000000000
H       2.009610000000000     -8.032510000000000      7.661040000000000
H       4.667220000000000     -6.562310000000000      7.241900000000000
H       4.091160000000000     -8.031390000000000      6.357250000000000
H       3.244030000000000     -6.449830000000000      6.161780000000000
H       3.243510000000000     -4.987690000000000     10.816970000000000
H       2.422200000000000     -6.122260000000000     11.959519999999999
H       3.743410000000000     -6.729120000000000     10.883620000000001
H       5.224730000000000     -3.827290000000000      8.240000000000000
C       4.907730000000000     -2.130750000000000      6.859480000000000
C       4.750070000000000     -3.578530000000000      7.268440000000000
C       4.385120000000000     -1.168290000000000      7.935570000000000
H       5.984280000000000     -1.953740000000000      6.682330000000000
H       4.351160000000000     -1.969280000000000      5.911930000000000
H       3.302440000000000     -1.314170000000000      8.106570000000000
H       4.912990000000000     -1.347420000000000      8.896530000000000
C       4.602730000000000      0.275740000000000      7.502280000000000
H       5.026550000000000     -4.286400000000000      6.463620000000000
H       5.684610000000000      0.455460000000000      7.331160000000000
H       4.043350000000000      0.483480000000000      6.564510000000000
H       4.243480000000000      0.967980000000000      8.292320000000000
C       1.834880000000000     -2.051000000000000     10.239500000000000
C       0.810220000000000     -1.169520000000000     10.502630000000000
C      -0.176340000000000     -1.412090000000000      9.557770000000000
C       0.292530000000000     -2.430490000000000      8.759819999999999
N       1.513160000000000     -2.775150000000000      9.162000000000001
C      -0.415070000000000     -3.099610000000000      7.616340000000000
N       0.502440000000000     -3.850060000000000      6.736510000000000
C       0.776770000000000     -3.223440000000000      5.429920000000000
H       0.795670000000000     -0.428680000000000     11.287229999999999
H       2.772770000000000     -2.143190000000000     10.775980000000001
H      -1.118570000000000     -0.897030000000000      9.452900000000000
H      -1.093600000000000     -3.827010000000000      8.060320000000001
H      -1.072070000000000     -2.391430000000000      7.087500000000000
C       1.222710000000000     -1.768360000000000      5.618420000000000
C       1.930040000000000     -3.976700000000000      4.736110000000000
C      -0.467310000000000     -3.314930000000000      4.529000000000000
H       2.106360000000000     -1.756100000000000      6.277170000000000
H       1.480880000000000     -1.308050000000000      4.645470000000000
H       0.440010000000000     -1.148710000000000      6.094550000000000
H       1.679840000000000     -5.025330000000000      4.546600000000000
H       2.156970000000000     -3.523910000000000      3.747140000000000
H       2.850980000000000     -3.962690000000000      5.347950000000000
H      -0.775520000000000     -4.373460000000000      4.398540000000000
H      -1.322820000000000     -2.759880000000000      4.954200000000000
H      -0.253970000000000     -2.887750000000000      3.529990000000000
Mg     -0.365510000000000     -6.274090000000000      6.894450000000000
C      -3.084720000000000     -6.867570000000000      5.590120000000000
C      -3.400380000000000     -4.537270000000000      5.948470000000000
O      -2.558010000000000     -5.660050000000000      6.098950000000000
C      -3.107760000000000     -6.913930000000000      4.066870000000000
C      -4.775980000000000     -4.692280000000000      6.590430000000000
H      -2.420310000000000     -7.667980000000000      5.956400000000000
H      -4.069900000000000     -7.124220000000000      6.018820000000000
H      -2.907290000000000     -3.712550000000000      6.496670000000000
H      -3.460120000000000     -4.216390000000000      4.888650000000000
H      -4.678460000000000     -5.048680000000000      7.636810000000000
H      -5.283890000000000     -3.707410000000000      6.591750000000000
H      -5.400870000000000     -5.398330000000000      6.009980000000000
H      -2.107890000000000     -6.704110000000000      3.646330000000000
H      -3.419370000000000     -7.928450000000000      3.741920000000000
H      -3.825050000000000     -6.172210000000000      3.668200000000000
H       0.007020000000000     -6.539000000000000      4.211020000000000
C       0.034330000000000     -8.656050000000000      4.624190000000000
C       0.391070000000000     -7.215570000000000      4.998230000000000
C       0.359100000000000     -8.989210000000000      3.160560000000000
H       0.574970000000000     -9.361850000000000      5.284260000000000
H      -1.050150000000000     -8.813090000000001      4.746410000000000
H       0.037150000000000    -10.035640000000001      2.971500000000000
H      -0.224320000000000     -8.322939999999999      2.487070000000000
C       1.843450000000000     -8.870620000000001      2.822400000000000
H       1.490330000000000     -7.138880000000000      5.001290000000000
H       2.193950000000000     -7.823330000000000      2.930560000000000
H       2.441160000000000     -9.532999999999999      3.482760000000000
H       2.002350000000000     -9.175739999999999      1.766900000000000
C       1.081370000000000    -10.580200000000000     10.606140000000000
C      -0.061820000000000    -11.353490000000001     10.545820000000001
C      -0.872560000000000    -10.804050000000000      9.570130000000001
C      -0.220440000000000     -9.754540000000000      9.107880000000000
N       1.016730000000000     -9.627649999999999      9.750819999999999
C      -0.720420000000000     -8.812310000000000      8.066689999999999
N      -0.822970000000000     -7.439770000000000      8.568500000000000
C      -1.918570000000000     -7.126020000000000      9.547990000000000
H      -0.288120000000000    -12.212600000000000     11.159960000000000
H       1.924160000000000    -10.718040000000000     11.264440000000000
H      -1.852160000000000    -11.131399999999999      9.258160000000000
H      -1.665360000000000     -9.142530000000001      7.596080000000000
H       0.028400000000000     -8.815060000000001      7.272710000000000
C      -1.461120000000000     -7.509000000000000     10.967020000000000
C      -2.210560000000000     -5.616430000000000      9.589620000000000
C      -3.248700000000000     -7.842520000000000      9.223520000000001
H      -0.538580000000000     -6.956780000000000     11.236050000000001
H      -2.236990000000000     -7.250270000000000     11.716120000000000
H      -1.266840000000000     -8.586160000000000     11.068610000000000
H      -2.601840000000000     -5.264910000000000      8.620860000000000
H      -2.994780000000000     -5.387460000000000     10.347860000000001
H      -1.307930000000000     -5.041480000000000      9.879070000000000
H      -3.631020000000000     -7.536570000000000      8.232229999999999
H      -3.137210000000000     -8.943280000000000      9.248320000000000
H      -4.022570000000000     -7.583790000000000      9.977980000000001

-C 0
6-31g(d,p)
****
-H 0
6-31g(d,p)
****
-Mg 0
6-31g(d,p)
****
-N 0
6-31+g(d,p)
****
-Na 0
6-31g(d,p)
****
-O 0
6-31+g(d,p)
****


