%chk=lowest10_c1_a1_speciation0_speciationDFT133_rank09_E178.86.chk
%nprocshared=20
%mem=40GB
#p opt=loose PM7/gen scf=xqc 

lowest10_c1_a1_speciation0_speciationDFT133_rank09_E178.86 DFT input

0 1
Na     -0.978940000000000     -2.132060000000000      0.749020000000000
C       1.292920000000000     -0.449090000000000     -0.795950000000000
C       0.718080000000000      0.579490000000000      1.189120000000000
O       0.216850000000000      0.008630000000000     -0.002500000000000
C       0.749630000000000     -1.056980000000000     -2.084720000000000
C      -0.445740000000000      1.060990000000000      2.048600000000000
H       1.964050000000000      0.394340000000000     -1.076760000000000
H       1.866630000000000     -1.241340000000000     -0.263410000000000
H       1.286290000000000     -0.173790000000000      1.780900000000000
H       1.360100000000000      1.461250000000000      0.963710000000000
H      -1.108330000000000      0.209720000000000      2.313450000000000
H      -0.059500000000000      1.515240000000000      2.986190000000000
H      -1.038550000000000      1.825300000000000      1.502240000000000
H       0.178560000000000     -0.297230000000000     -2.659630000000000
H       1.590250000000000     -1.419950000000000     -2.714270000000000
H       0.081940000000000     -1.914590000000000     -1.855760000000000
Na     -0.694110000000000      2.042170000000000     -1.316910000000000
Mg      2.098830000000000     -4.925430000000000      7.159420000000000
C       1.384910000000000     -7.192510000000000      8.909580000000000
C       2.396000000000000     -8.281910000000000      7.070120000000000
O       1.930810000000000     -7.083400000000000      7.619010000000000
C       2.417660000000000     -6.849840000000000      9.968240000000000
C       3.303750000000000     -7.928570000000000      5.896610000000000
H       0.552470000000000     -6.459930000000000      8.986010000000000
H       0.952890000000000     -8.177180000000000      9.102470000000000
H       2.977170000000000     -8.879890000000000      7.802870000000000
H       1.541340000000000     -8.851910000000000      6.674970000000000
H       4.198930000000000     -7.381680000000000      6.255840000000000
H       3.622880000000000     -8.850770000000001      5.371180000000000
H       2.775760000000000     -7.269210000000000      5.175720000000000
H       2.775220000000000     -5.807070000000000      9.830900000000000
H       1.953920000000000     -6.941640000000000     10.973450000000000
H       3.275130000000000     -7.548500000000000      9.897539999999999
H       4.756420000000000     -4.646560000000000      7.253870000000000
C       4.439380000000000     -2.950050000000000      5.873280000000000
C       4.281790000000000     -4.397830000000000      6.282280000000000
C       3.916740000000000     -1.987570000000000      6.949330000000000
H       5.515930000000000     -2.773020000000000      5.696150000000000
H       3.882820000000000     -2.788610000000000      4.925710000000000
H       2.834080000000000     -2.133500000000000      7.120400000000000
H       4.444650000000000     -2.166660000000000      7.910290000000000
C       4.134260000000000     -0.543560000000000      6.515950000000000
H       4.558290000000000     -5.105740000000000      5.477500000000000
H       5.216140000000000     -0.363830000000000      6.344850000000000
H       3.574830000000000     -0.335850000000000      5.578170000000000
H       3.775040000000000      0.148680000000000      7.306020000000000
C       1.366640000000000     -2.870270000000000      9.253550000000001
C       0.341970000000000     -1.988790000000000      9.516629999999999
C      -0.644580000000000     -2.231350000000000      8.571770000000001
C      -0.175680000000000     -3.249770000000000      7.773910000000000
N       1.044940000000000     -3.594440000000000      8.176090000000000
C      -0.883130000000000     -3.918890000000000      6.630480000000000
N       0.034750000000000     -4.669200000000000      5.751000000000000
C       0.308910000000000     -4.042700000000000      4.444420000000000
H       0.327400000000000     -1.247940000000000     10.301209999999999
H       2.304520000000000     -2.962490000000000      9.790020000000000
H      -1.586820000000000     -1.716320000000000      8.466830000000000
H      -1.561730000000000     -4.646350000000000      7.074300000000000
H      -1.540040000000000     -3.210680000000000      6.101550000000000
C       0.754590000000000     -2.587290000000000      4.632410000000000
C       1.462080000000000     -4.795920000000000      3.750370000000000
C      -0.935230000000000     -4.134890000000000      3.544090000000000
H       1.638260000000000     -2.574750000000000      5.291020000000000
H       1.012790000000000     -2.127120000000000      3.659490000000000
H      -0.028150000000000     -1.967510000000000      5.108310000000000
H       1.211810000000000     -5.844560000000000      3.560840000000000
H       1.688870000000000     -4.343080000000000      2.761350000000000
H       2.383080000000000     -4.781890000000000      4.362020000000000
H      -1.243390000000000     -5.193420000000000      3.413600000000000
H      -1.790850000000000     -3.579690000000000      3.968890000000000
H      -0.721290000000000     -3.708260000000000      2.545430000000000
Mg     -0.833740000000000     -7.093410000000000      5.908400000000000
C      -3.553030000000000     -7.687010000000000      4.604110000000000
C      -3.868680000000000     -5.356710000000000      4.962500000000000
O      -3.026320000000000     -6.479500000000000      5.112980000000000
C      -3.576050000000000     -7.733370000000000      3.080860000000000
C      -5.244290000000000     -5.511700000000000      5.604430000000000
H      -2.888610000000000     -8.487420000000000      4.970370000000000
H      -4.538210000000000     -7.943660000000000      5.032790000000000
H      -3.375580000000000     -4.532000000000000      5.510710000000000
H      -3.928420000000000     -5.035850000000000      3.902690000000000
H      -5.146790000000000     -5.868100000000000      6.650810000000000
H      -5.752190000000000     -4.526830000000000      5.605740000000000
H      -5.869170000000000     -6.217750000000000      5.023960000000000
H      -2.576180000000000     -7.523550000000000      2.660330000000000
H      -3.887670000000000     -8.747890000000000      2.755900000000000
H      -4.293340000000000     -6.991650000000000      2.682190000000000
H      -0.461220000000000     -7.358410000000000      3.224960000000000
C      -0.433930000000000     -9.475440000000001      3.638150000000000
C      -0.077180000000000     -8.034960000000000      4.012190000000000
C      -0.109170000000000     -9.808619999999999      2.174520000000000
H       0.106700000000000    -10.181250000000000      4.298220000000000
H      -1.518410000000000     -9.632479999999999      3.760370000000000
H      -0.431130000000000    -10.855040000000001      1.985450000000000
H      -0.692590000000000     -9.142350000000000      1.501030000000000
C       1.375180000000000     -9.690030000000000      1.836350000000000
H       1.022080000000000     -7.958250000000000      4.015230000000000
H       1.725680000000000     -8.642740000000000      1.944510000000000
H       1.972890000000000    -10.352410000000001      2.496710000000000
H       1.534070000000000     -9.995150000000001      0.780840000000000
C       0.613090000000000    -11.399580000000000      9.620070000000000
C      -0.530100000000000    -12.172879999999999      9.559760000000001
C      -1.340840000000000    -11.623430000000001      8.584059999999999
C      -0.688720000000000    -10.573919999999999      8.121810000000000
N       0.548450000000000    -10.447030000000000      8.764760000000001
C      -1.188700000000000     -9.631690000000001      7.080630000000000
N      -1.291260000000000     -8.259140000000000      7.582430000000000
C      -2.386850000000000     -7.945390000000000      8.561920000000001
H      -0.756410000000000    -13.031980000000001     10.173890000000000
H       1.455880000000000    -11.537419999999999     10.278370000000001
H      -2.320440000000000    -11.950780000000000      8.272090000000000
H      -2.133640000000000     -9.961910000000000      6.610010000000000
H      -0.439880000000000     -9.634430000000000      6.286650000000000
C      -1.929390000000000     -8.328379999999999      9.980950000000000
C      -2.678840000000000     -6.435800000000000      8.603560000000000
C      -3.716980000000000     -8.661899999999999      8.237450000000001
H      -1.006860000000000     -7.776160000000000     10.249990000000000
H      -2.705270000000000     -8.069649999999999     10.730060000000000
H      -1.735120000000000     -9.405540000000000     10.082540000000000
H      -3.070100000000000     -6.084270000000000      7.634800000000000
H      -3.463060000000000     -6.206830000000000      9.361789999999999
H      -1.776210000000000     -5.860850000000000      8.893010000000000
H      -4.099310000000000     -8.355950000000000      7.246170000000000
H      -3.605490000000000     -9.762660000000000      8.262259999999999
H      -4.490850000000000     -8.403169999999999      8.991920000000000

-C 0
6-31g(d,p)
****
-H 0
6-31g(d,p)
****
-Mg 0
6-31g(d,p)
****
-N 0
6-31+g(d,p)
****
-Na 0
6-31g(d,p)
****
-O 0
6-31+g(d,p)
****


