%chk=lowest10_c1_a1_speciation0_speciationDFT39_rank06_E164.53.chk
%nprocshared=20
%mem=40GB
#p opt=loose PM7/gen scf=xqc 

lowest10_c1_a1_speciation0_speciationDFT39_rank06_E164.53 DFT input

0 1
Na     -2.013680000000000      1.196860000000000     -0.922650000000000
C      -0.585850000000000     -0.994860000000000      0.980140000000000
C       0.597650000000000      0.986940000000000      0.980900000000000
O      -0.002440000000000      0.001230000000000      0.165210000000000
C      -1.224890000000000     -2.061480000000000      0.097390000000000
C       1.214270000000000      2.067040000000000      0.098160000000000
H       0.185900000000000     -1.493490000000000      1.609830000000000
H      -1.387730000000000     -0.560840000000000      1.618460000000000
H      -0.160420000000000      1.475630000000000      1.634590000000000
H       1.413810000000000      0.545490000000000      1.596800000000000
H       0.432160000000000      2.549050000000000     -0.526250000000000
H       1.691910000000000      2.845050000000000      0.731500000000000
H       1.987540000000000      1.627490000000000     -0.567260000000000
H      -0.459230000000000     -2.533980000000000     -0.554000000000000
H      -1.686480000000000     -2.848700000000000      0.731320000000000
H      -2.014910000000000     -1.611820000000000     -0.541020000000000
Na      2.012140000000000     -1.195750000000000     -0.927600000000000
Mg      0.120690000000000      0.089210000000000      8.965339999999999
H       1.825060000000000      2.126160000000000      9.691739999999999
C       3.089370000000000      0.365870000000000      9.316590000000000
C       1.835400000000000      1.032710000000000      9.865850000000000
C       3.242450000000000      0.684720000000000      7.835930000000000
H       3.986310000000000      0.718210000000000      9.864680000000000
H       3.000310000000000     -0.730750000000000      9.460889999999999
H       2.294600000000000      0.483010000000000      7.327970000000000
H       3.457340000000000      1.765730000000000      7.710630000000000
C       4.339130000000000     -0.158490000000000      7.192270000000000
H       1.761210000000000      0.833450000000000     10.957530000000000
H       5.311270000000000      0.022940000000000      7.694770000000000
H       4.086980000000000     -1.239880000000000      7.264950000000000
H       4.428530000000000      0.105340000000000      6.117770000000000
C       1.378560000000000     -5.170360000000000      8.248900000000001
C       1.634730000000000     -4.077520000000000      7.451570000000000
C       1.409810000000000     -2.949620000000000      8.222569999999999
C       1.024570000000000     -3.338350000000000      9.436590000000001
N       1.003380000000000     -4.744280000000000      9.532810000000000
C       0.638940000000000     -2.429110000000000     10.568800000000000
N      -0.711940000000000     -1.880440000000000     10.341340000000001
C      -1.765480000000000     -2.344700000000000     11.267890000000000
H       1.940550000000000     -4.112350000000000      6.412620000000000
H       1.446780000000000     -6.204770000000000      7.943300000000000
H       1.521560000000000     -1.929540000000000      7.907650000000000
H       1.367840000000000     -1.607050000000000     10.669879999999999
H       0.721340000000000     -2.984970000000000     11.516389999999999
C      -1.526620000000000     -1.715110000000000     12.649940000000001
C      -3.145680000000000     -1.891050000000000     10.748060000000001
C      -1.825150000000000     -3.884830000000000     11.336169999999999
H      -1.516020000000000     -0.606630000000000     12.568120000000000
H      -2.326230000000000     -2.008480000000000     13.358359999999999
H      -0.550120000000000     -2.023510000000000     13.071630000000001
H      -3.330740000000000     -2.301640000000000      9.736290000000000
H      -3.958230000000000     -2.241420000000000     11.417550000000000
H      -3.255800000000000     -0.801220000000000     10.702520000000000
H      -2.011170000000000     -4.298450000000000     10.322270000000000
H      -0.900490000000000     -4.342530000000000     11.728280000000000
H      -2.652830000000000     -4.201030000000000     12.004140000000000
Mg     -1.444680000000000     -2.331910000000000      8.011350000000000
H      -2.000380000000000     -4.337870000000000      6.240110000000000
C      -3.670410000000000     -4.549880000000000      7.646260000000000
C      -2.210550000000000     -4.219860000000000      7.320550000000000
C      -4.671400000000000     -3.766560000000000      6.791810000000000
H      -3.810520000000000     -5.624150000000000      7.405490000000000
H      -3.882630000000000     -4.419780000000000      8.730660000000000
H      -4.395960000000000     -3.881880000000000      5.721230000000000
H      -5.682370000000000     -4.201080000000000      6.940840000000000
C      -4.749260000000000     -2.290960000000000      7.150380000000000
H      -1.572870000000000     -4.941250000000000      7.877060000000000
H      -5.104480000000000     -2.162830000000000      8.194080000000000
H      -3.759670000000000     -1.825890000000000      7.037020000000000
H      -5.464600000000000     -1.781250000000000      6.471160000000000
C      -1.634630000000000      3.663830000000000      9.280500000000000
C      -1.631850000000000      2.956730000000000     10.464160000000000
C      -1.953220000000000      1.655440000000000     10.145510000000000
C      -2.131130000000000      1.615520000000000      8.825010000000001
N      -1.929640000000000      2.897480000000000      8.293060000000001
C      -2.501230000000000      0.411620000000000      7.983710000000000
N      -1.309510000000000     -0.311550000000000      7.487570000000000
C      -0.965140000000000     -0.124730000000000      6.046860000000000
H      -1.412450000000000      3.342230000000000     11.453210000000000
H      -1.419500000000000      4.713030000000000      9.168030000000000
H      -2.020790000000000      0.858550000000000     10.856230000000000
H      -3.197030000000000      0.738490000000000      7.195930000000000
H      -3.098660000000000     -0.278540000000000      8.594799999999999
C      -0.605860000000000      1.344390000000000      5.776710000000000
C       0.234770000000000     -1.004850000000000      5.643650000000000
C      -2.120100000000000     -0.585560000000000      5.125910000000000
H       0.254730000000000      1.651030000000000      6.411620000000000
H      -0.333010000000000      1.491450000000000      4.711430000000000
H      -1.464610000000000      2.006590000000000      5.992240000000000
H       0.026810000000000     -2.081710000000000      5.816430000000000
H       0.469020000000000     -0.870620000000000      4.564150000000000
H       1.146580000000000     -0.737750000000000      6.171100000000000
H      -2.330330000000000     -1.664600000000000      5.288330000000000
H      -3.057200000000000     -0.018190000000000      5.257040000000000
H      -1.832110000000000     -0.458280000000000      4.062100000000000

-C 0
6-31g(d,p)
****
-H 0
6-31g(d,p)
****
-Mg 0
6-31g(d,p)
****
-N 0
6-31+g(d,p)
****
-Na 0
6-31g(d,p)
****
-O 0
6-31+g(d,p)
****


