%chk=lowest10_c1_a1_speciation7_speciationDFT133_rank02_E221.83.chk
%nprocshared=20
%mem=40GB
#p opt=loose PM7/gen scf=xqc 

lowest10_c1_a1_speciation7_speciationDFT133_rank02_E221.83 DFT input

0 1
Na     -1.373130000000000     -0.687630000000000      0.193540000000000
C       0.101850000000000      0.798410000000000      2.578800000000000
C      -0.395580000000000      2.383530000000000      0.919360000000000
O      -0.021910000000000      1.045970000000000      1.191340000000000
C      -1.232900000000000      0.372570000000000      3.186260000000000
C       0.828080000000000      3.283810000000000      0.759260000000000
H       0.823050000000000     -0.035690000000000      2.712660000000000
H       0.527940000000000      1.666440000000000      3.128610000000000
H      -0.961470000000000      2.389770000000000     -0.037030000000000
H      -1.082980000000000      2.797670000000000      1.688620000000000
H       1.462860000000000      2.936640000000000     -0.083050000000000
H       0.493440000000000      4.320750000000000      0.544900000000000
H       1.433520000000000      3.294450000000000      1.688640000000000
H      -1.606130000000000     -0.550860000000000      2.695090000000000
H      -1.095820000000000      0.169760000000000      4.268930000000000
H      -1.991070000000000      1.173570000000000      3.073360000000000
C      -4.199930000000000      0.957160000000000      0.539670000000000
C      -4.544360000000000     -1.062320000000000     -0.686970000000000
O      -3.619950000000000     -0.162220000000000     -0.104050000000000
C      -5.082060000000000      0.593240000000000      1.733460000000000
C      -5.381030000000000     -0.441170000000000     -1.804250000000000
H      -3.355710000000000      1.558570000000000      0.937840000000000
H      -4.723920000000000      1.619730000000000     -0.179080000000000
H      -3.939920000000000     -1.871410000000000     -1.151280000000000
H      -5.174370000000000     -1.561830000000000      0.077790000000000
H      -4.719130000000000      0.041740000000000     -2.553830000000000
H      -5.971640000000000     -1.237330000000000     -2.303890000000000
H      -6.092150000000000      0.304900000000000     -1.395800000000000
H      -4.522000000000000     -0.051940000000000      2.442850000000000
H      -5.385870000000000      1.523820000000000      2.257640000000000
H      -6.003570000000000      0.074480000000000      1.400930000000000
Na      1.851540000000000      0.519610000000000     -0.144430000000000
C       0.741530000000000     -2.358780000000000     -1.235720000000000
C       0.107480000000000     -0.613830000000000     -2.667810000000000
O       0.417940000000000     -0.987550000000000     -1.340480000000000
C       1.410580000000000     -2.604140000000000      0.113470000000000
C      -1.313790000000000     -1.012190000000000     -3.066360000000000
H      -0.184790000000000     -2.969200000000000     -1.274070000000000
H       1.455390000000000     -2.685450000000000     -2.024890000000000
H       0.171460000000000      0.494700000000000     -2.718070000000000
H       0.854440000000000     -0.998210000000000     -3.395660000000000
H      -2.051570000000000     -0.556090000000000     -2.374550000000000
H      -1.522200000000000     -0.645580000000000     -4.093720000000000
H      -1.434530000000000     -2.114590000000000     -3.059340000000000
H       0.748640000000000     -2.267060000000000      0.940040000000000
H       1.619230000000000     -3.687160000000000      0.242660000000000
H       2.370130000000000     -2.049070000000000      0.175920000000000
C       4.906320000000000     -0.161610000000000     -1.183190000000000
C       4.885000000000000      0.119500000000000      1.121760000000000
O       4.104390000000000      0.046790000000000     -0.046270000000000
C       3.991920000000000     -0.207180000000000     -2.402440000000000
C       3.943010000000000      0.308450000000000      2.305740000000000
H       5.626500000000000      0.675800000000000     -1.322190000000000
H       5.440120000000000     -1.135770000000000     -1.115080000000000
H       5.452720000000000     -0.824820000000000      1.280190000000000
H       5.573550000000000      0.993150000000000      1.082860000000000
H       3.241180000000000     -0.550510000000000      2.371440000000000
H       4.518610000000000      0.373570000000000      3.252310000000000
H       3.352380000000000      1.241900000000000      2.179350000000000
H       3.441290000000000      0.753040000000000     -2.505230000000000
H       4.582980000000000     -0.383980000000000     -3.324700000000000
H       3.253740000000000     -1.027890000000000     -2.290000000000000
Mg     -4.099670000000000    -11.907679999999999     -0.463300000000000
C      -3.835570000000000    -12.475429999999999     -3.344560000000000
C      -1.696730000000000    -11.613350000000001     -2.811020000000000
O      -3.002660000000000    -11.873900000000001     -2.384880000000000
C      -3.867150000000000    -13.983110000000000     -3.172550000000000
C      -0.848430000000000    -11.367850000000001     -1.567460000000000
H      -4.864490000000000    -12.084479999999999     -3.191040000000000
H      -3.557210000000000    -12.217510000000001     -4.366820000000000
H      -1.262640000000000    -12.465310000000001     -3.375200000000000
H      -1.690760000000000    -10.688890000000001     -3.409780000000000
H      -0.799220000000000    -12.287280000000001     -0.949540000000000
H       0.177440000000000    -11.065920000000000     -1.858900000000000
H      -1.293740000000000    -10.566720000000000     -0.940490000000000
H      -4.258940000000000    -14.245039999999999     -2.166830000000000
H      -4.533240000000000    -14.423690000000001     -3.944800000000000
H      -2.846250000000000    -14.397349999999999     -3.293710000000000
H      -2.658260000000000    -13.740740000000001      0.847070000000000
C      -3.361160000000000    -12.710889999999999      2.671820000000000
C      -2.695550000000000    -12.734740000000000      1.313610000000000
C      -4.778980000000000    -13.298530000000000      2.628600000000000
H      -2.727190000000000    -13.299360000000000      3.359910000000000
H      -3.403660000000000    -11.658780000000000      3.025360000000000
H      -5.434410000000000    -12.705230000000000      1.964490000000000
H      -4.748920000000000    -14.339760000000000      2.242490000000000
C      -5.394080000000000    -13.295109999999999      4.022100000000000
H      -1.714350000000000    -12.222479999999999      1.305190000000000
H      -4.761080000000000    -13.892040000000000      4.711300000000000
H      -5.472490000000000    -12.254350000000001      4.404390000000000
H      -6.410450000000000    -13.740539999999999      3.990130000000000
C      -6.798040000000000    -13.256019999999999     -0.288940000000000
C      -8.127390000000000    -12.901490000000001     -0.204950000000000
C      -8.174640000000000    -11.522209999999999     -0.342680000000000
C      -6.878090000000000    -11.096500000000001     -0.502780000000000
N      -6.062700000000000    -12.154870000000001     -0.431410000000000
C      -6.387900000000000     -9.699759999999999     -0.738650000000000
N      -4.946600000000000     -9.540889999999999     -0.464840000000000
C      -4.615520000000000     -8.818220000000000      0.777510000000000
H      -8.956110000000001    -13.572500000000000     -0.049150000000000
H      -6.385190000000000    -14.258990000000001     -0.218800000000000
H      -9.054750000000000    -10.895030000000000     -0.313790000000000
H      -6.533230000000000     -9.499420000000001     -1.799990000000000
H      -7.029660000000000     -8.964190000000000     -0.226470000000000
C      -5.363250000000000     -9.431960000000000      1.967530000000000
C      -3.105050000000000     -8.953180000000000      1.058250000000000
C      -4.943400000000000     -7.322360000000000      0.621850000000000
H      -5.104380000000000    -10.501519999999999      2.029500000000000
H      -5.078760000000000     -8.928580000000000      2.911250000000000
H      -6.461130000000000     -9.357640000000000      1.856040000000000
H      -2.498570000000000     -8.517049999999999      0.258100000000000
H      -2.828500000000000     -8.416110000000000      1.990760000000000
H      -2.803720000000000    -10.012150000000000      1.161030000000000
H      -4.391400000000000     -6.891820000000000     -0.239980000000000
H      -6.022460000000000     -7.155280000000000      0.453180000000000
H      -4.657240000000000     -6.764390000000000      1.535860000000000
Mg     -3.981550000000000     -8.791399999999999     -2.735090000000000
C      -4.730680000000000     -5.970800000000000     -3.707420000000000
C      -6.597060000000000     -6.327520000000000     -2.276380000000000
O      -5.406000000000000     -6.846330000000000     -2.828770000000000
C      -4.055670000000000     -4.807020000000000     -2.990020000000000
C      -7.634330000000000     -5.896840000000000     -3.309380000000000
H      -3.953910000000000     -6.576770000000000     -4.203120000000000
H      -5.365330000000000     -5.621130000000000     -4.541220000000000
H      -7.061600000000000     -7.162370000000000     -1.718440000000000
H      -6.384370000000000     -5.533700000000000     -1.531850000000000
H      -7.795160000000000     -6.700860000000000     -4.057160000000000
H      -8.592040000000001     -5.690930000000000     -2.791330000000000
H      -7.315190000000000     -4.967580000000000     -3.819800000000000
H      -3.384780000000000     -5.167500000000000     -2.189590000000000
H      -3.450510000000000     -4.233720000000000     -3.722900000000000
H      -4.813140000000000     -4.134790000000000     -2.544950000000000
H      -2.414480000000000     -6.987840000000000     -1.433470000000000
C      -1.200260000000000     -7.050330000000000     -3.215490000000000
C      -2.075250000000000     -7.743070000000000     -2.167870000000000
C      -0.148190000000000     -6.121310000000000     -2.592630000000000
H      -0.688380000000000     -7.807820000000000     -3.840450000000000
H      -1.829300000000000     -6.418420000000000     -3.864210000000000
H       0.411940000000000     -5.638270000000000     -3.421680000000000
H      -0.655850000000000     -5.322710000000000     -2.008740000000000
C       0.849160000000000     -6.845930000000000     -1.691850000000000
H      -1.439590000000000     -8.469320000000000     -1.635950000000000
H       0.341120000000000     -7.286580000000000     -0.809190000000000
H       1.367460000000000     -7.646490000000000     -2.260050000000000
H       1.602830000000000     -6.118630000000000     -1.323840000000000
C      -1.864840000000000    -12.006589999999999     -7.243320000000000
C      -2.069460000000000    -11.099110000000000     -8.258319999999999
C      -2.509150000000000     -9.918380000000001     -7.684470000000000
C      -2.582910000000000    -10.109690000000001     -6.373710000000000
N      -2.161100000000000    -11.403919999999999     -6.020440000000000
C      -3.065090000000000     -9.112250000000000     -5.382340000000000
N      -4.236950000000000     -9.595260000000000     -4.647220000000000
C      -5.549050000000000     -9.664280000000000     -5.376420000000000
H      -1.926500000000000    -11.292610000000000     -9.308930000000000
H      -1.534980000000000    -13.029990000000000     -7.350440000000000
H      -2.782940000000000     -9.008160000000000     -8.199140000000000
H      -3.241040000000000     -8.108309999999999     -5.813590000000000
H      -2.255320000000000     -8.993090000000000     -4.660510000000000
C      -5.625490000000000    -10.979200000000001     -6.174000000000000
C      -6.729670000000000     -9.696800000000000     -4.391270000000000
C      -5.777110000000000     -8.469460000000000     -6.328950000000000
H      -5.524840000000000    -11.848970000000000     -5.494520000000000
H      -6.602350000000000    -11.071380000000000     -6.691430000000000
H      -4.846960000000000    -11.046900000000001     -6.947430000000000
H      -6.783870000000000     -8.760289999999999     -3.812450000000000
H      -7.696840000000000     -9.786590000000000     -4.937920000000000
H      -6.662300000000000    -10.572010000000001     -3.714010000000000
H      -5.785180000000000     -7.515460000000000     -5.769990000000000
H      -5.003710000000000     -8.423780000000001     -7.119360000000000
H      -6.755620000000000     -8.566710000000000     -6.846510000000000

-C 0
6-31g(d,p)
****
-H 0
6-31g(d,p)
****
-Mg 0
6-31g(d,p)
****
-N 0
6-31+g(d,p)
****
-Na 0
6-31g(d,p)
****
-O 0
6-31+g(d,p)
****


