%chk=lowest10_c1_a1_speciation7_speciationDFT11_rank01_E173.18.chk
%nprocshared=20
%mem=40GB
#p opt=loose PM7/gen scf=xqc 

lowest10_c1_a1_speciation7_speciationDFT11_rank01_E173.18 DFT input

0 1
Na     -0.484380000000000     -1.217900000000000     -0.850190000000000
C      -2.502900000000000      0.906030000000000      0.372400000000000
C      -1.115970000000000      2.020120000000000     -1.159700000000000
O      -1.207560000000000      0.994110000000000     -0.189470000000000
C      -3.397900000000000     -0.021190000000000     -0.446430000000000
C      -0.705870000000000      3.349230000000000     -0.528650000000000
H      -2.403040000000000      0.477170000000000      1.392130000000000
H      -2.978830000000000      1.903170000000000      0.502050000000000
H      -0.334240000000000      1.725060000000000     -1.892290000000000
H      -2.055700000000000      2.140990000000000     -1.741370000000000
H       0.286020000000000      3.260090000000000     -0.037690000000000
H      -0.639530000000000      4.124920000000000     -1.320450000000000
H      -1.453830000000000      3.675740000000000      0.222640000000000
H      -2.960340000000000     -1.040790000000000     -0.493200000000000
H      -4.397650000000000     -0.083690000000000      0.031650000000000
H      -3.526000000000000      0.364690000000000     -1.477900000000000
C      -1.617470000000000     -0.934550000000000     -3.932140000000000
C      -0.400820000000000     -2.969720000000000     -3.663590000000000
O      -0.783690000000000     -1.725940000000000     -3.106320000000000
C      -2.970260000000000     -1.577040000000000     -4.238370000000000
C       0.434460000000000     -2.838060000000000     -4.936030000000000
H      -1.826360000000000     -0.004420000000000     -3.362810000000000
H      -1.093090000000000     -0.607310000000000     -4.853150000000000
H       0.244260000000000     -3.464810000000000     -2.905980000000000
H      -1.269180000000000     -3.645120000000000     -3.803340000000000
H       1.297890000000000     -2.162790000000000     -4.757560000000000
H       0.813610000000000     -3.839230000000000     -5.229350000000000
H      -0.179830000000000     -2.448810000000000     -5.772730000000000
H      -3.477360000000000     -1.872640000000000     -3.295690000000000
H      -3.607230000000000     -0.842270000000000     -4.774410000000000
H      -2.849570000000000     -2.463280000000000     -4.893480000000000
Na      0.587520000000000      1.259830000000000      1.323550000000000
C       1.528950000000000     -1.877950000000000      1.340680000000000
C       2.654670000000000     -0.666080000000000     -0.320800000000000
O       1.470180000000000     -0.790930000000000      0.440180000000000
C       0.405960000000000     -1.729890000000000      2.362730000000000
C       2.706250000000000     -1.661310000000000     -1.479750000000000
H       1.371190000000000     -2.831930000000000      0.794270000000000
H       2.488620000000000     -1.907340000000000      1.903900000000000
H       2.656540000000000      0.356290000000000     -0.756570000000000
H       3.566990000000000     -0.732800000000000      0.310870000000000
H       1.825430000000000     -1.529650000000000     -2.141400000000000
H       3.625310000000000     -1.481770000000000     -2.076620000000000
H       2.732990000000000     -2.704840000000000     -1.105680000000000
H      -0.577830000000000     -1.668590000000000      1.849610000000000
H       0.397540000000000     -2.604400000000000      3.046990000000000
H       0.552260000000000     -0.809820000000000      2.966540000000000
C       2.391370000000000      1.903990000000000      4.010540000000000
C       0.142800000000000      2.281130000000000      4.446240000000000
O       1.080270000000000      1.809620000000000      3.509430000000000
C       3.344510000000000      1.396910000000000      2.934330000000000
C      -1.248070000000000      2.112260000000000      3.845490000000000
H       2.656610000000000      2.961180000000000      4.236940000000000
H       2.515320000000000      1.262800000000000      4.911720000000000
H       0.186670000000000      1.686720000000000      5.386430000000000
H       0.302200000000000      3.362900000000000      4.654300000000000
H      -1.437430000000000      1.039510000000000      3.626310000000000
H      -2.021860000000000      2.475380000000000      4.553220000000000
H      -1.327840000000000      2.688920000000000      2.898290000000000
H       3.250060000000000      2.015930000000000      2.015850000000000
H       4.393540000000000      1.441700000000000      3.293040000000000
H       3.099880000000000      0.345200000000000      2.679100000000000
Mg     -5.841920000000000    -10.807530000000000     -4.271440000000000
H      -3.247750000000000    -10.095610000000001     -3.204830000000000
C      -3.081680000000000    -12.047160000000000     -4.131930000000000
C      -3.873670000000000    -11.003620000000000     -3.367130000000000
C      -2.449980000000000    -11.529510000000000     -5.436970000000000
H      -2.267490000000000    -12.405460000000000     -3.472440000000000
H      -3.776870000000000    -12.877050000000001     -4.345540000000000
H      -3.218360000000000    -11.121680000000000     -6.128390000000000
H      -1.717950000000000    -10.726300000000000     -5.206210000000000
C      -1.695250000000000    -12.661180000000000     -6.134940000000000
H      -4.175620000000000    -11.382280000000000     -2.374600000000000
H      -0.919050000000000    -13.080000000000000     -5.459130000000000
H      -2.392870000000000    -13.472400000000000     -6.414510000000000
H      -1.202130000000000    -12.292330000000000     -7.058270000000000
C      -2.934170000000000     -6.675120000000000     -7.518850000000000
C      -2.411830000000000     -7.838320000000000     -6.999660000000000
C      -2.459410000000000     -7.735600000000000     -5.621010000000000
C      -3.015980000000000     -6.558370000000000     -5.318700000000000
N      -3.338360000000000     -5.827800000000000     -6.472850000000000
C      -3.273460000000000     -6.059110000000000     -3.931740000000000
N      -4.132460000000000     -7.002870000000000     -3.215730000000000
C      -4.248070000000000     -6.861640000000000     -1.742520000000000
H      -2.039520000000000     -8.676940000000000     -7.575890000000000
H      -3.040230000000000     -6.439460000000000     -8.566200000000000
H      -2.126400000000000     -8.475400000000000     -4.910180000000000
H      -2.296640000000000     -5.934350000000000     -3.431000000000000
H      -3.784090000000000     -5.075150000000000     -3.999850000000000
C      -4.798810000000000     -5.464010000000000     -1.402850000000000
C      -5.232770000000000     -7.919700000000000     -1.229160000000000
C      -2.894810000000000     -7.075170000000000     -1.018260000000000
H      -5.762250000000000     -5.299020000000000     -1.931510000000000
H      -4.969990000000000     -5.358540000000000     -0.310310000000000
H      -4.086460000000000     -4.670080000000000     -1.711260000000000
H      -4.856470000000000     -8.940600000000000     -1.453190000000000
H      -5.364660000000000     -7.837320000000000     -0.126900000000000
H      -6.221850000000000     -7.788560000000000     -1.712150000000000
H      -2.494170000000000     -8.093730000000001     -1.206510000000000
H      -2.130280000000000     -6.332080000000000     -1.318540000000000
H      -3.025270000000000     -6.953930000000000      0.081040000000000
Mg     -4.683780000000000     -8.721769999999999     -4.294030000000000
H      -7.262110000000000     -9.443540000000000     -5.393790000000000
C      -6.251420000000000     -8.166510000000001     -6.823410000000000
C      -6.552670000000000     -8.583679999999999     -5.396620000000000
C      -5.785750000000000     -9.318160000000001     -7.732680000000000
H      -7.177580000000000     -7.739090000000000     -7.254290000000000
H      -5.474730000000000     -7.384660000000000     -6.766490000000000
H      -4.875290000000000     -9.812749999999999     -7.331090000000000
H      -6.592860000000000    -10.076739999999999     -7.819300000000000
C      -5.492450000000000     -8.787470000000001     -9.136089999999999
H      -7.024590000000000     -7.759870000000000     -4.832500000000000
H      -6.393720000000000     -8.291230000000001     -9.555740000000000
H      -4.668510000000000     -8.050640000000000     -9.103120000000001
H      -5.193420000000000     -9.614420000000001     -9.813179999999999
C      -4.960570000000000    -14.369190000000000     -6.315730000000000
C      -5.425050000000000    -13.239640000000000     -6.951210000000000
C      -6.451330000000000    -12.722390000000001     -6.181180000000000
C      -6.584710000000000    -13.501340000000001     -5.102990000000000
N      -5.675220000000000    -14.570180000000001     -5.122450000000000
C      -7.572770000000000    -13.283920000000000     -4.000050000000000
N      -7.368530000000000    -11.963660000000001     -3.402970000000000
C      -8.433230000000000    -11.425140000000001     -2.519430000000000
H      -5.044680000000000    -12.836209999999999     -7.881990000000000
H      -4.160110000000000    -15.006200000000000     -6.658170000000000
H      -7.033040000000000    -11.839760000000000     -6.395900000000000
H      -8.586230000000000    -13.388479999999999     -4.428180000000000
H      -7.415540000000000    -14.064970000000001     -3.226490000000000
C      -8.651420000000000    -12.384480000000000     -1.334430000000000
C      -7.972900000000000    -10.066649999999999     -1.976720000000000
C      -9.773600000000000    -11.212949999999999     -3.267620000000000
H      -7.690520000000000    -12.552730000000000     -0.802210000000000
H      -9.388190000000000    -11.967549999999999     -0.615050000000000
H      -9.038140000000000    -13.365010000000000     -1.682930000000000
H      -7.815980000000000     -9.349710000000000     -2.810470000000000
H      -8.736230000000001     -9.634110000000000     -1.291570000000000
H      -7.022480000000000    -10.179840000000000     -1.417440000000000
H      -9.658700000000000    -10.488030000000000     -4.101040000000000
H     -10.187770000000000    -12.156720000000000     -3.673210000000000
H     -10.544010000000000    -10.815440000000001     -2.568570000000000

-C 0
6-31g(d,p)
****
-H 0
6-31g(d,p)
****
-Mg 0
6-31g(d,p)
****
-N 0
6-31+g(d,p)
****
-Na 0
6-31g(d,p)
****
-O 0
6-31+g(d,p)
****


