%chk=lowest10_c1_a1_speciation7_speciationDFT133_rank09_E222.19.chk
%nprocshared=20
%mem=40GB
#p opt=loose PM7/gen scf=xqc 

lowest10_c1_a1_speciation7_speciationDFT133_rank09_E222.19 DFT input

0 1
Na     -1.373120000000000     -0.685640000000000      0.192230000000000
C       0.101980000000000      0.798110000000000      2.578570000000000
C      -0.395350000000000      2.383250000000000      0.919010000000000
O      -0.021580000000000      1.045730000000000      1.191070000000000
C      -1.232840000000000      0.372560000000000      3.186200000000000
C       0.828140000000000      3.283860000000000      0.759150000000000
H       0.822980000000000     -0.036150000000000      2.712490000000000
H       0.528250000000000      1.666070000000000      3.128300000000000
H      -0.961080000000000      2.389450000000000     -0.037490000000000
H      -1.082940000000000      2.797230000000000      1.688150000000000
H       1.462970000000000      2.937290000000000     -0.083390000000000
H       0.493260000000000      4.320840000000000      0.545300000000000
H       1.433670000000000      3.294290000000000      1.688470000000000
H      -1.606220000000000     -0.551100000000000      2.695540000000000
H      -1.095760000000000      0.170210000000000      4.268960000000000
H      -1.991010000000000      1.173530000000000      3.073080000000000
C      -4.199520000000000      0.958040000000000      0.540200000000000
C      -4.544140000000000     -1.060820000000000     -0.686640000000000
O      -3.619580000000000     -0.161140000000000     -0.103640000000000
C      -5.081920000000000      0.593810000000000      1.733710000000000
C      -5.380910000000000     -0.439280000000000     -1.803730000000000
H      -3.355240000000000      1.559190000000000      0.938500000000000
H      -4.723370000000000      1.620640000000000     -0.178590000000000
H      -3.939720000000000     -1.869840000000000     -1.151100000000000
H      -5.174020000000000     -1.560540000000000      0.078140000000000
H      -4.719130000000000      0.043740000000000     -2.553360000000000
H      -5.971600000000000     -1.235160000000000     -2.303620000000000
H      -6.092230000000000      0.306350000000000     -1.395040000000000
H      -4.522170000000000     -0.051810000000000      2.442970000000000
H      -5.385610000000000      1.524260000000000      2.258110000000000
H      -6.003500000000000      0.075360000000000      1.400850000000000
Na      1.851800000000000      0.518320000000000     -0.143700000000000
C       0.742160000000000     -2.358000000000000     -1.236180000000000
C       0.107680000000000     -0.613400000000000     -2.668350000000000
O       0.418130000000000     -0.986970000000000     -1.340990000000000
C       1.410800000000000     -2.603330000000000      0.113390000000000
C      -1.313300000000000     -1.012250000000000     -3.067470000000000
H      -0.184120000000000     -2.967950000000000     -1.274870000000000
H       1.456020000000000     -2.684740000000000     -2.025400000000000
H       0.171190000000000      0.495140000000000     -2.718340000000000
H       0.854810000000000     -0.997600000000000     -3.396050000000000
H      -2.051500000000000     -0.556390000000000     -2.375820000000000
H      -1.521610000000000     -0.645670000000000     -4.094850000000000
H      -1.433470000000000     -2.114730000000000     -3.060920000000000
H       0.748890000000000     -2.265980000000000      0.939890000000000
H       1.619070000000000     -3.686360000000000      0.243060000000000
H       2.370620000000000     -2.048780000000000      0.176050000000000
C       4.906160000000000     -0.161620000000000     -1.183330000000000
C       4.884870000000000      0.119540000000000      1.121810000000000
O       4.104360000000000      0.046860000000000     -0.046320000000000
C       3.991550000000000     -0.207240000000000     -2.402520000000000
C       3.942720000000000      0.308500000000000      2.305740000000000
H       5.626340000000000      0.675770000000000     -1.322440000000000
H       5.439960000000000     -1.135770000000000     -1.115240000000000
H       5.452580000000000     -0.824780000000000      1.280280000000000
H       5.573450000000000      0.993170000000000      1.082980000000000
H       3.240850000000000     -0.550440000000000      2.371400000000000
H       4.518120000000000      0.373630000000000      3.252440000000000
H       3.352070000000000      1.241930000000000      2.179340000000000
H       3.440970000000000      0.753000000000000     -2.505390000000000
H       4.582380000000000     -0.384220000000000     -3.324900000000000
H       3.253290000000000     -1.027850000000000     -2.289960000000000
Mg     -3.925040000000000     -8.762100000000000     -8.330380000000000
C      -3.033410000000000    -11.337630000000001     -7.196640000000000
C      -4.950480000000000    -10.857820000000000     -5.897660000000000
O      -4.046300000000000    -10.419710000000000     -6.869600000000000
C      -3.404460000000000    -12.141050000000000     -8.430160000000001
C      -6.176400000000000     -9.953370000000000     -5.968950000000000
H      -2.113320000000000    -10.756850000000000     -7.423820000000000
H      -2.785050000000000    -12.004180000000000     -6.367500000000000
H      -5.271180000000000    -11.906940000000001     -6.067200000000000
H      -4.497140000000000    -10.732650000000000     -4.902520000000000
H      -6.685730000000000    -10.074790000000000     -6.946360000000000
H      -6.882820000000000    -10.204780000000000     -5.152780000000000
H      -5.883790000000000     -8.886290000000001     -5.874360000000000
H      -3.551030000000000    -11.463730000000000     -9.298389999999999
H      -2.583290000000000    -12.851929999999999     -8.663110000000000
H      -4.336610000000000    -12.710340000000000     -8.242110000000000
H      -6.149230000000000     -9.234780000000001     -9.738120000000000
C      -6.102340000000000     -7.070450000000000    -10.183050000000000
C      -6.100730000000000     -8.247870000000001     -9.233390000000000
C      -4.970740000000000     -7.162830000000000    -11.216670000000001
H      -7.082720000000000     -7.060020000000000    -10.693360000000000
H      -5.990690000000000     -6.138360000000000     -9.589370000000001
H      -3.980910000000000     -7.147880000000000    -10.724010000000000
H      -5.055320000000000     -8.109790000000000    -11.791370000000001
C      -5.036120000000000     -5.982450000000000    -12.177260000000000
H      -6.844410000000000     -8.146500000000000     -8.419800000000000
H      -6.017950000000000     -5.975990000000000    -12.694950000000000
H      -4.907740000000000     -5.028190000000000    -11.621960000000000
H      -4.229800000000000     -6.064530000000000    -12.935900000000000
C      -1.932780000000000     -8.890150000000000    -10.602010000000000
C      -0.731390000000000     -8.314800000000000    -10.951050000000000
C      -0.329780000000000     -7.544230000000000     -9.869450000000001
C      -1.306000000000000     -7.683720000000000     -8.909599999999999
N      -2.274620000000000     -8.465000000000000     -9.380850000000001
C      -1.326690000000000     -7.091140000000000     -7.529470000000000
N      -2.672700000000000     -7.098820000000000     -6.923260000000000
C      -3.343220000000000     -5.786700000000000     -6.859390000000000
H      -0.218540000000000     -8.437070000000000    -11.892700000000000
H      -2.541100000000000     -9.553170000000000    -11.207330000000001
H       0.560840000000000     -6.939720000000000     -9.795370000000000
H      -0.697980000000000     -7.731760000000000     -6.912330000000000
H      -0.827450000000000     -6.109680000000000     -7.511760000000000
C      -3.336940000000000     -5.116660000000000     -8.238709999999999
C      -4.815850000000000     -5.987160000000000     -6.447100000000000
C      -2.664830000000000     -4.897250000000000     -5.801910000000000
H      -3.821990000000000     -5.794950000000000     -8.959450000000000
H      -3.885160000000000     -4.155690000000000     -8.210179999999999
H      -2.311830000000000     -4.916790000000000     -8.602729999999999
H      -4.906080000000000     -6.446020000000000     -5.457490000000000
H      -5.344940000000000     -5.011790000000000     -6.390760000000000
H      -5.353500000000000     -6.636920000000000     -7.162280000000000
H      -2.681400000000000     -5.393590000000000     -4.808850000000000
H      -1.611420000000000     -4.686070000000000     -6.059710000000000
H      -3.189810000000000     -3.924730000000000     -5.716760000000000
Mg     -2.369630000000000     -8.544129999999999     -4.809000000000000
C      -0.684230000000000     -7.347730000000000     -2.534550000000000
C       0.251700000000000     -6.090200000000000     -4.323780000000000
O      -0.663170000000000     -7.087730000000000     -3.922480000000000
C      -1.333470000000000     -6.229550000000000     -1.728080000000000
C       1.699650000000000     -6.370810000000000     -3.932790000000000
H      -1.280260000000000     -8.266610000000000     -2.405510000000000
H       0.307920000000000     -7.616390000000000     -2.129900000000000
H       0.236450000000000     -6.092750000000000     -5.430000000000000
H      -0.085420000000000     -5.081780000000000     -4.008250000000000
H       1.990010000000000     -7.399620000000000     -4.231090000000000
H       2.357960000000000     -5.646500000000000     -4.452290000000000
H       1.842090000000000     -6.241340000000000     -2.842420000000000
H      -2.344760000000000     -5.998380000000000     -2.108220000000000
H      -1.420910000000000     -6.551780000000000     -0.669630000000000
H      -0.716740000000000     -5.313620000000000     -1.775470000000000
H      -3.915170000000000     -6.777830000000000     -3.430270000000000
C      -4.218630000000000     -8.416750000000000     -2.060960000000000
C      -4.056860000000000     -7.874260000000000     -3.482770000000000
C      -5.208720000000000     -7.597500000000000     -1.219970000000000
H      -4.558710000000000     -9.469989999999999     -2.095790000000000
H      -3.250810000000000     -8.371800000000000     -1.534680000000000
H      -5.235470000000000     -8.040030000000000     -0.201220000000000
H      -4.845620000000000     -6.549620000000000     -1.130330000000000
C      -6.628280000000000     -7.591230000000000     -1.782600000000000
H      -5.000750000000000     -8.066760000000000     -4.017870000000000
H      -6.661410000000000     -7.093730000000000     -2.773940000000000
H      -7.008700000000000     -8.629930000000000     -1.874790000000000
H      -7.290470000000000     -7.024730000000000     -1.094840000000000
C      -2.961240000000000    -14.333040000000000     -4.062300000000000
C      -2.154550000000000    -14.523270000000000     -2.957280000000000
C      -1.748590000000000    -13.272610000000000     -2.530310000000000
C      -2.292250000000000    -12.411300000000001     -3.368840000000000
N      -3.068810000000000    -13.081690000000000     -4.321110000000000
C      -2.101550000000000    -10.933100000000000     -3.338330000000000
N      -1.497360000000000    -10.429449999999999     -4.574230000000000
C      -0.046650000000000    -10.730750000000000     -4.824850000000000
H      -1.876560000000000    -15.471909999999999     -2.521960000000000
H      -3.443490000000000    -15.095079999999999     -4.653060000000000
H      -1.097460000000000    -13.031180000000001     -1.704720000000000
H      -1.550010000000000    -10.581960000000000     -2.446190000000000
H      -3.101180000000000    -10.501490000000000     -3.263530000000000
C       0.084620000000000    -12.133430000000001     -5.445240000000000
C       0.553730000000000     -9.755220000000000     -5.851360000000000
C       0.821570000000000    -10.647209999999999     -3.549260000000000
H      -0.486540000000000    -12.189810000000000     -6.393390000000000
H       1.143900000000000    -12.365589999999999     -5.677880000000000
H      -0.274600000000000    -12.924930000000000     -4.772310000000000
H       0.552770000000000     -8.724220000000001     -5.461070000000000
H       1.617800000000000    -10.011039999999999     -6.062670000000000
H       0.013750000000000     -9.808410000000000     -6.818160000000000
H       0.793050000000000     -9.629720000000001     -3.117540000000000
H       0.496440000000000    -11.377950000000000     -2.784390000000000
H       1.881410000000000    -10.883800000000001     -3.785460000000000

-C 0
6-31g(d,p)
****
-H 0
6-31g(d,p)
****
-Mg 0
6-31g(d,p)
****
-N 0
6-31+g(d,p)
****
-Na 0
6-31g(d,p)
****
-O 0
6-31+g(d,p)
****


