%chk=lowest10_c1_a1_speciation0_speciationDFT133_rank04_E178.68.chk
%nprocshared=20
%mem=40GB
#p opt=loose PM7/gen scf=xqc 

lowest10_c1_a1_speciation0_speciationDFT133_rank04_E178.68 DFT input

0 1
Na     -2.014020000000000      1.197030000000000     -0.923040000000000
C      -0.585200000000000     -0.995520000000000      0.978330000000000
C       0.597820000000000      0.986730000000000      0.978850000000000
O      -0.003620000000000      0.001710000000000      0.163400000000000
C      -1.225340000000000     -2.060720000000000      0.095100000000000
C       1.214590000000000      2.066900000000000      0.096570000000000
H       0.188750000000000     -1.494800000000000      1.603330000000000
H      -1.385080000000000     -0.563150000000000      1.621520000000000
H      -0.159850000000000      1.475940000000000      1.632440000000000
H       1.414120000000000      0.544770000000000      1.594310000000000
H       0.432390000000000      2.549210000000000     -0.527450000000000
H       1.692190000000000      2.844610000000000      0.730380000000000
H       1.987880000000000      1.627390000000000     -0.568740000000000
H      -0.459740000000000     -2.534300000000000     -0.555480000000000
H      -1.689130000000000     -2.846620000000000      0.727030000000000
H      -2.014940000000000     -1.610270000000000     -0.542850000000000
Na      2.012230000000000     -1.196080000000000     -0.927470000000000
Mg      1.394740000000000     -5.668820000000000      7.127390000000000
C       0.680940000000000     -7.935850000000000      8.877780000000000
C       1.692030000000000     -9.025250000000000      7.038320000000000
O       1.226850000000000     -7.826740000000000      7.587210000000000
C       1.713690000000000     -7.593190000000000      9.936430000000000
C       2.599780000000000     -8.671910000000000      5.864800000000000
H      -0.151500000000000     -7.203270000000000      8.954200000000000
H       0.248920000000000     -8.920529999999999      9.070660000000000
H       2.273200000000000     -9.623230000000000      7.771060000000000
H       0.837360000000000     -9.595240000000000      6.643160000000000
H       3.494960000000000     -8.125030000000001      6.224030000000000
H       2.918900000000000     -9.594110000000001      5.339370000000000
H       2.071780000000000     -8.012549999999999      5.143910000000000
H       2.071250000000000     -6.550420000000000      9.799090000000000
H       1.249950000000000     -7.684980000000000     10.941649999999999
H       2.571160000000000     -8.291840000000001      9.865740000000001
H       4.052440000000000     -5.389910000000000      7.222070000000000
C       3.735420000000000     -3.693380000000000      5.841480000000000
C       3.577800000000000     -5.141170000000000      6.250490000000000
C       3.212850000000000     -2.730890000000000      6.917560000000000
H       4.811970000000000     -3.516380000000000      5.664330000000000
H       3.178830000000000     -3.531940000000000      4.893920000000000
H       2.130220000000000     -2.876780000000000      7.088750000000000
H       3.740770000000000     -2.909990000000000      7.878500000000000
C       3.430350000000000     -1.286890000000000      6.484140000000000
H       3.854290000000000     -5.849070000000000      5.445710000000000
H       4.512230000000000     -1.107160000000000      6.313030000000000
H       2.870930000000000     -1.079180000000000      5.546360000000000
H       3.071130000000000     -0.594650000000000      7.274200000000000
C       0.662670000000000     -3.613680000000000      9.221640000000001
C      -0.362000000000000     -2.732220000000000      9.484769999999999
C      -1.348590000000000     -2.974860000000000      8.539960000000001
C      -0.879730000000000     -3.993330000000000      7.742090000000000
N       0.340940000000000     -4.337880000000000      8.144190000000000
C      -1.587380000000000     -4.662600000000000      6.598760000000000
N      -0.669980000000000     -5.413470000000000      5.719180000000000
C      -0.395190000000000     -4.786580000000000      4.412940000000000
H      -0.376560000000000     -1.991350000000000     10.269330000000000
H       1.600580000000000     -3.705840000000000      9.758100000000001
H      -2.290840000000000     -2.459830000000000      8.435079999999999
H      -2.266120000000000     -5.389710000000000      7.042760000000000
H      -2.244170000000000     -3.954340000000000      6.069740000000000
C       0.050970000000000     -3.331910000000000      4.602440000000000
C       0.758030000000000     -5.539510000000000      3.718660000000000
C      -1.638980000000000     -4.877680000000000      3.511770000000000
H       0.934270000000000     -3.319710000000000      5.261330000000000
H       0.310970000000000     -2.872890000000000      3.630640000000000
H      -0.731930000000000     -2.711480000000000      5.077180000000000
H       0.507780000000000     -6.588040000000000      3.528690000000000
H       0.984730000000000     -5.086250000000000      2.729760000000000
H       1.679050000000000     -5.525580000000000      4.330260000000000
H      -1.947340000000000     -5.936140000000000      3.380830000000000
H      -2.494670000000000     -4.322680000000000      3.936670000000000
H      -1.424780000000000     -4.450350000000000      2.513190000000000
Mg     -1.537820000000000     -7.836920000000000      5.876560000000000
C      -4.256990000000000     -8.430339999999999      4.572290000000000
C      -4.572640000000000     -6.100030000000000      4.930650000000000
O      -3.730280000000000     -7.222820000000000      5.081130000000000
C      -4.280020000000000     -8.476699999999999      3.049040000000000
C      -5.948250000000000     -6.255040000000000      5.572600000000000
H      -3.592580000000000     -9.230740000000001      4.938550000000000
H      -5.242170000000000     -8.686980000000000      5.000970000000000
H      -4.079540000000000     -5.275320000000000      5.478840000000000
H      -4.632380000000000     -5.779170000000000      3.870840000000000
H      -5.850740000000000     -6.611430000000000      6.618980000000000
H      -6.456150000000000     -5.270160000000000      5.573910000000000
H      -6.573130000000000     -6.961090000000000      4.992140000000000
H      -3.280150000000000     -8.266880000000000      2.628500000000000
H      -4.591640000000000     -9.491220000000000      2.724080000000000
H      -4.997310000000000     -7.734980000000000      2.650370000000000
H      -1.165220000000000     -8.101730000000000      3.193170000000000
C      -1.137910000000000    -10.218780000000001      3.606330000000000
C      -0.781170000000000     -8.778309999999999      3.980370000000000
C      -0.813150000000000    -10.551959999999999      2.142700000000000
H      -0.597270000000000    -10.924580000000001      4.266400000000000
H      -2.222390000000000    -10.375819999999999      3.728550000000000
H      -1.135100000000000    -11.598380000000001      1.953640000000000
H      -1.396570000000000     -9.885690000000000      1.469210000000000
C       0.671200000000000    -10.433370000000000      1.804540000000000
H       0.318090000000000     -8.701589999999999      3.983430000000000
H       1.021700000000000     -9.386080000000000      1.912700000000000
H       1.268910000000000    -11.095750000000001      2.464900000000000
H       0.830100000000000    -10.738490000000001      0.749040000000000
C      -0.090880000000000    -12.142920000000000      9.588260000000000
C      -1.234080000000000    -12.916230000000001      9.527950000000001
C      -2.044820000000000    -12.366790000000000      8.552260000000000
C      -1.392700000000000    -11.317270000000001      8.090000000000000
N      -0.155520000000000    -11.190379999999999      8.732950000000001
C      -1.892670000000000    -10.375050000000000      7.048830000000000
N      -1.995230000000000     -9.002520000000001      7.550650000000000
C      -3.090830000000000     -8.688760000000000      8.530130000000000
H      -1.460380000000000    -13.775320000000001     10.142090000000000
H       0.751910000000000    -12.280760000000001     10.246560000000001
H      -3.024420000000000    -12.694129999999999      8.240280000000000
H      -2.837620000000000    -10.705270000000001      6.578210000000000
H      -1.143860000000000    -10.377789999999999      6.254850000000000
C      -2.633370000000000     -9.071740000000000      9.949149999999999
C      -3.382830000000000     -7.179180000000000      8.571770000000001
C      -4.420960000000000     -9.405260000000000      8.205650000000000
H      -1.710840000000000     -8.519510000000000     10.218180000000000
H      -3.409250000000000     -8.813000000000001     10.698259999999999
H      -2.439090000000000    -10.148890000000000     10.050739999999999
H      -3.774120000000000     -6.827670000000000      7.603010000000000
H      -4.167050000000000     -6.950200000000000      9.330000000000000
H      -2.480190000000000     -6.604230000000000      8.861230000000001
H      -4.803280000000000     -9.099299999999999      7.214360000000000
H      -4.309470000000000    -10.506019999999999      8.230449999999999
H      -5.194830000000000     -9.146520000000001      8.960110000000000

-C 0
6-31g(d,p)
****
-H 0
6-31g(d,p)
****
-Mg 0
6-31g(d,p)
****
-N 0
6-31+g(d,p)
****
-Na 0
6-31g(d,p)
****
-O 0
6-31+g(d,p)
****


