%chk=lowest10_c1_a1_speciation7_speciationDFT45_rank01_E185.62.chk
%nprocshared=20
%mem=40GB
#p opt=loose PM7/gen scf=xqc 

lowest10_c1_a1_speciation7_speciationDFT45_rank01_E185.62 DFT input

0 1
Na     -0.182980000000000     -0.004820000000000      1.550720000000000
C       2.577730000000000      0.831640000000000      0.226670000000000
C       0.941420000000000      2.376560000000000     -0.443750000000000
O       1.220160000000000      1.027380000000000     -0.120210000000000
C       2.806470000000000      1.061810000000000      1.718850000000000
C       1.144810000000000      2.647230000000000     -1.933330000000000
H       2.839030000000000     -0.223180000000000     -0.003250000000000
H       3.265990000000000      1.459840000000000     -0.380760000000000
H      -0.124050000000000      2.571700000000000     -0.195470000000000
H       1.537080000000000      3.091380000000000      0.164530000000000
H       0.469270000000000      2.011190000000000     -2.543310000000000
H       0.914130000000000      3.712440000000000     -2.146110000000000
H       2.195040000000000      2.448560000000000     -2.229910000000000
H       2.184880000000000      0.364300000000000      2.319150000000000
H       3.875380000000000      0.882830000000000      1.958630000000000
H       2.554280000000000      2.104080000000000      2.000380000000000
C      -0.458800000000000      2.719920000000000      3.373120000000000
C      -1.848020000000000      0.982180000000000      4.238780000000000
O      -1.001210000000000      1.424850000000000      3.194220000000000
C       0.453130000000000      2.843240000000000      4.593380000000000
C      -3.101040000000000      1.838550000000000      4.414840000000000
H       0.172090000000000      2.918340000000000      2.481270000000000
H      -1.245980000000000      3.501140000000000      3.360450000000000
H      -2.192640000000000     -0.034230000000000      3.949690000000000
H      -1.295330000000000      0.849970000000000      5.191920000000000
H      -3.632260000000000      1.942340000000000      3.445190000000000
H      -3.777830000000000      1.349540000000000      5.146330000000000
H      -2.840790000000000      2.841160000000000      4.809850000000000
H       1.241150000000000      2.061320000000000      4.565110000000000
H       0.937940000000000      3.842160000000000      4.584900000000000
H      -0.128870000000000      2.756300000000000      5.532870000000000
Na      0.366390000000000     -0.335040000000000     -1.848250000000000
C      -1.134210000000000     -2.506740000000000      0.084190000000000
C      -2.577070000000000     -0.746270000000000     -0.479730000000000
O      -1.238020000000000     -1.138810000000000     -0.253930000000000
C       0.323880000000000     -2.937030000000000     -0.051310000000000
C      -3.339430000000000     -0.509260000000000      0.823710000000000
H      -1.439600000000000     -2.659970000000000      1.140900000000000
H      -1.736510000000000     -3.154920000000000     -0.591280000000000
H      -2.545590000000000      0.219260000000000     -1.029360000000000
H      -3.116570000000000     -1.459520000000000     -1.140100000000000
H      -2.829120000000000      0.262500000000000      1.435870000000000
H      -4.365070000000000     -0.153040000000000      0.589740000000000
H      -3.420550000000000     -1.445700000000000      1.410450000000000
H       0.976290000000000     -2.299390000000000      0.583420000000000
H       0.439680000000000     -3.994130000000000      0.268450000000000
H       0.656890000000000     -2.848970000000000     -1.106740000000000
C       0.085750000000000     -2.331240000000000     -4.458600000000000
C       2.324920000000000     -1.934880000000000     -3.985860000000000
O       0.996410000000000     -1.730190000000000     -3.570330000000000
C      -1.324490000000000     -2.047850000000000     -3.951750000000000
C       3.245050000000000     -1.288320000000000     -2.956020000000000
H       0.180020000000000     -1.897820000000000     -5.479640000000000
H       0.229120000000000     -3.434580000000000     -4.482180000000000
H       2.565410000000000     -3.020910000000000     -4.029060000000000
H       2.510210000000000     -1.449430000000000     -4.970190000000000
H       3.083570000000000     -1.753210000000000     -1.959790000000000
H       4.307610000000000     -1.424110000000000     -3.246170000000000
H       3.029630000000000     -0.200220000000000     -2.880260000000000
H      -1.505940000000000     -0.951650000000000     -3.916400000000000
H      -2.078660000000000     -2.516690000000000     -4.617210000000000
H      -1.448120000000000     -2.459870000000000     -2.929040000000000
Mg     -6.713020000000000     -5.033870000000000     -1.195820000000000
H      -5.445480000000000     -2.934570000000000     -3.266160000000000
C      -5.156880000000000     -5.026270000000000     -3.947080000000000
C      -5.276250000000000     -3.955220000000000     -2.874160000000000
C      -6.398970000000000     -5.052250000000000     -4.842220000000000
H      -4.254290000000000     -4.810750000000000     -4.553210000000000
H      -5.037430000000000     -6.016360000000000     -3.454670000000000
H      -7.298690000000000     -5.270450000000000     -4.233970000000000
H      -6.528900000000000     -4.060130000000000     -5.324360000000000
C      -6.274980000000000     -6.121060000000000     -5.924160000000000
H      -4.428990000000000     -3.996620000000000     -2.156630000000000
H      -5.363820000000000     -5.944420000000000     -6.533700000000000
H      -6.217600000000000     -7.131480000000000     -5.465830000000000
H      -7.162390000000000     -6.085220000000000     -6.590990000000000
C      -7.523610000000000     -7.689870000000000     -2.655030000000000
C      -8.653860000000000     -8.396229999999999     -3.028970000000000
C      -9.738080000000000     -7.681440000000000     -2.555280000000000
C      -9.217380000000000     -6.579930000000000     -1.913960000000000
N      -7.876620000000000     -6.591150000000000     -1.974540000000000
C      -9.933380000000000     -5.483740000000000     -1.228970000000000
N      -9.292490000000001     -4.209170000000000     -1.583600000000000
C      -9.928690000000000     -3.378940000000000     -2.605600000000000
H      -8.681100000000001     -9.319369999999999     -3.589940000000000
H      -6.501030000000000     -7.959900000000000     -2.890170000000000
H     -10.784820000000000     -7.940840000000000     -2.663360000000000
H      -9.736140000000001     -5.651200000000000     -0.161510000000000
H     -11.034560000000001     -5.510530000000000     -1.360980000000000
C     -11.114570000000001     -2.621090000000000     -1.982550000000000
C      -8.877390000000000     -2.366980000000000     -3.094130000000000
C     -10.369899999999999     -4.220980000000000     -3.810240000000000
H     -10.769670000000000     -1.965270000000000     -1.151020000000000
H     -11.614240000000001     -1.989370000000000     -2.745530000000000
H     -11.863880000000000     -3.326390000000000     -1.569950000000000
H      -8.006080000000001     -2.889040000000000     -3.539460000000000
H      -9.308000000000000     -1.672470000000000     -3.843630000000000
H      -8.489369999999999     -1.756830000000000     -2.268050000000000
H      -9.504030000000000     -4.795690000000000     -4.195320000000000
H     -11.168469999999999     -4.936910000000000     -3.535240000000000
H     -10.750430000000000     -3.565380000000000     -4.617500000000000
Mg     -9.038679999999999     -3.683200000000000      0.767340000000000
H     -10.516579999999999     -3.595670000000000      3.112200000000000
C     -11.903340000000000     -4.507520000000000      1.662250000000000
C     -10.775380000000000     -3.537910000000000      2.037760000000000
C     -11.620469999999999     -5.940560000000000      2.125910000000000
H     -12.835789999999999     -4.167550000000000      2.160120000000000
H     -12.068949999999999     -4.471470000000000      0.564130000000000
H     -10.691319999999999     -6.327490000000000      1.681820000000000
H     -11.509589999999999     -5.943030000000000      3.231160000000000
C     -12.749750000000001     -6.890250000000000      1.735080000000000
H     -11.121919999999999     -2.507920000000000      1.804020000000000
H     -13.713770000000000     -6.551300000000000      2.169270000000000
H     -12.843640000000001     -6.943940000000000      0.629000000000000
H     -12.525200000000000     -7.908190000000000      2.119250000000000
C      -8.193970000000000     -0.644850000000000      2.868180000000000
C      -8.658020000000000     -0.307270000000000      1.618450000000000
C      -7.966880000000000     -1.077840000000000      0.707160000000000
C      -7.122810000000000     -1.870980000000000      1.371040000000000
N      -7.208940000000000     -1.640030000000000      2.758630000000000
C      -6.261990000000000     -2.941630000000000      0.753520000000000
N      -7.007270000000000     -4.221040000000000      0.709590000000000
C      -6.554520000000000     -5.276770000000000      1.640270000000000
H      -9.436159999999999      0.413130000000000      1.399430000000000
H      -8.541930000000001     -0.225170000000000      3.800030000000000
H      -8.124169999999999     -1.060070000000000     -0.350000000000000
H      -5.297610000000000     -2.997310000000000      1.292890000000000
H      -6.004210000000000     -2.640630000000000     -0.285200000000000
C      -6.577120000000000     -4.792290000000000      3.098940000000000
C      -7.510530000000000     -6.468450000000000      1.516210000000000
C      -5.138280000000000     -5.769410000000000      1.249030000000000
H      -7.598280000000000     -4.446880000000000      3.367480000000000
H      -6.289370000000000     -5.621850000000000      3.778790000000000
H      -5.861530000000000     -3.963570000000000      3.266780000000000
H      -7.538130000000000     -6.853080000000000      0.480060000000000
H      -7.194320000000000     -7.304800000000000      2.173800000000000
H      -8.527160000000000     -6.159560000000000      1.810540000000000
H      -5.131450000000000     -6.179160000000000      0.215140000000000
H      -4.377060000000000     -4.966610000000000      1.295850000000000
H      -4.807870000000000     -6.578600000000000      1.933290000000000

-C 0
6-31g(d,p)
****
-H 0
6-31g(d,p)
****
-Mg 0
6-31g(d,p)
****
-N 0
6-31+g(d,p)
****
-Na 0
6-31g(d,p)
****
-O 0
6-31+g(d,p)
****


