%chk=lowest10_c1_a1_speciation7_speciationDFT45_rank05_E186.82.chk
%nprocshared=20
%mem=40GB
#p opt=loose PM7/gen scf=xqc 

lowest10_c1_a1_speciation7_speciationDFT45_rank05_E186.82 DFT input

0 1
Na     -1.014340000000000     -0.398260000000000      1.105950000000000
C      -0.392780000000000     -2.292310000000000     -1.363930000000000
C       1.574810000000000     -2.054720000000000     -0.103850000000000
O       0.391540000000000     -1.428780000000000     -0.563170000000000
C      -1.358920000000000     -3.113340000000000     -0.512070000000000
C       2.729830000000000     -1.854440000000000     -1.083500000000000
H      -0.992440000000000     -1.663220000000000     -2.055630000000000
H       0.227690000000000     -2.953860000000000     -2.007870000000000
H       1.852960000000000     -1.585350000000000      0.864310000000000
H       1.428940000000000     -3.136390000000000      0.106900000000000
H       2.952650000000000     -0.774230000000000     -1.211980000000000
H       3.637190000000000     -2.356820000000000     -0.686500000000000
H       2.488290000000000     -2.294610000000000     -2.072590000000000
H      -2.039500000000000     -2.445150000000000      0.056800000000000
H      -1.969060000000000     -3.764490000000000     -1.172230000000000
H      -0.806010000000000     -3.757510000000000      0.201000000000000
C      -0.446590000000000     -2.705760000000000      3.380630000000000
C      -1.749580000000000     -0.925520000000000      4.292100000000000
O      -0.991470000000000     -1.412020000000000      3.200030000000000
C      -1.500460000000000     -3.800040000000000      3.546130000000000
C      -0.936500000000000     -0.760250000000000      5.575140000000000
H       0.113230000000000     -2.939320000000000      2.450620000000000
H       0.307100000000000     -2.725150000000000      4.194070000000000
H      -2.097990000000000      0.088970000000000      4.000830000000000
H      -2.671100000000000     -1.522040000000000      4.455080000000000
H      -0.028470000000000     -0.152530000000000      5.376510000000000
H      -1.556840000000000     -0.243270000000000      6.336790000000000
H      -0.644900000000000     -1.747290000000000      5.987000000000000
H      -2.223330000000000     -3.762830000000000      2.704780000000000
H      -0.999370000000000     -4.790920000000000      3.546740000000000
H      -2.038080000000000     -3.690810000000000      4.509480000000000
Na      0.983980000000000      0.648100000000000     -1.518070000000000
C      -1.312150000000000      2.424790000000000     -0.012240000000000
C       0.660600000000000      2.351720000000000      1.253450000000000
O      -0.161020000000000      1.676920000000000      0.322040000000000
C      -1.941310000000000      1.824270000000000     -1.266150000000000
C       0.134130000000000      2.234330000000000      2.683810000000000
H      -2.057020000000000      2.360820000000000      0.809020000000000
H      -1.073330000000000      3.488430000000000     -0.237300000000000
H       1.658400000000000      1.863180000000000      1.222610000000000
H       0.829010000000000      3.413370000000000      0.970450000000000
H       0.044800000000000      1.168000000000000      2.976960000000000
H       0.844270000000000      2.731670000000000      3.377800000000000
H      -0.853620000000000      2.727960000000000      2.784810000000000
H      -2.173570000000000      0.749490000000000     -1.105490000000000
H      -2.882690000000000      2.359270000000000     -1.512540000000000
H      -1.247610000000000      1.914950000000000     -2.128190000000000
C       1.607620000000000      3.091150000000000     -3.644220000000000
C       0.847540000000000      1.212630000000000     -4.778140000000000
O       1.095320000000000      1.787010000000000     -3.518110000000000
C       1.867610000000000      3.632460000000000     -2.242730000000000
C       0.262960000000000     -0.177720000000000     -4.554300000000000
H       2.573030000000000      3.088550000000000     -4.198450000000000
H       0.867890000000000      3.758290000000000     -4.140510000000000
H       0.103060000000000      1.811840000000000     -5.348980000000000
H       1.793090000000000      1.103130000000000     -5.355040000000000
H      -0.684820000000000     -0.101430000000000     -3.979320000000000
H       0.053350000000000     -0.670950000000000     -5.526070000000000
H       0.978410000000000     -0.805410000000000     -3.979620000000000
H       2.606000000000000      2.991020000000000     -1.714450000000000
H       2.261560000000000      4.668510000000000     -2.293470000000000
H       0.923660000000000      3.638860000000000     -1.659670000000000
Mg     -5.611750000000000     -7.266540000000000      0.075300000000000
H      -4.345470000000000     -5.167430000000000     -1.996090000000000
C      -4.056770000000000     -7.259300000000000     -2.676730000000000
C      -4.177030000000000     -6.188250000000000     -1.604100000000000
C      -5.298350000000000     -7.285120000000000     -3.572190000000000
H      -3.154020000000000     -7.043870000000000     -3.282580000000000
H      -3.937270000000000     -8.249330000000000     -2.184220000000000
H      -6.198080000000000     -7.503330000000000     -2.964030000000000
H      -5.428010000000000     -6.292900000000000     -4.054220000000000
C      -5.173860000000000     -8.353840000000000     -4.654030000000000
H      -3.330420000000000     -6.230180000000000     -0.885930000000000
H      -4.262550000000000     -8.177030000000000     -5.263310000000000
H      -5.116370000000000     -9.364210000000000     -4.195600000000000
H      -6.061120000000000     -8.318020000000001     -5.321000000000000
C      -6.422130000000000     -9.922400000000000     -1.384440000000000
C      -7.552370000000000    -10.628700000000000     -1.758510000000000
C      -8.636600000000000     -9.913910000000000     -1.284850000000000
C      -8.115900000000000     -8.812450000000000     -0.643440000000000
N      -6.775160000000000     -8.823729999999999     -0.703870000000000
C      -8.831880000000000     -7.716230000000000      0.041530000000000
N      -8.190970000000000     -6.441660000000000     -0.313130000000000
C      -8.827170000000001     -5.611400000000000     -1.335120000000000
H      -7.579580000000000    -11.551819999999999     -2.319520000000000
H      -5.399540000000000    -10.192460000000001     -1.619540000000000
H      -9.683330000000000    -10.173280000000000     -1.393000000000000
H      -8.634630000000000     -7.883690000000000      1.108990000000000
H      -9.933050000000000     -7.743000000000000     -0.090500000000000
C     -10.013030000000001     -4.853550000000000     -0.712070000000000
C      -7.775870000000000     -4.599420000000000     -1.823660000000000
C      -9.268390000000000     -6.453430000000000     -2.539760000000000
H      -9.668130000000000     -4.197730000000000      0.119450000000000
H     -10.512700000000001     -4.221830000000000     -1.475050000000000
H     -10.762340000000000     -5.558850000000000     -0.299470000000000
H      -6.904590000000000     -5.121480000000000     -2.269030000000000
H      -8.206469999999999     -3.904910000000000     -2.573160000000000
H      -7.387810000000000     -3.989260000000000     -0.997580000000000
H      -8.402570000000001     -7.028150000000000     -2.924850000000000
H     -10.066950000000000     -7.169360000000000     -2.264760000000000
H      -9.648910000000001     -5.797830000000000     -3.347030000000000
Mg     -7.937170000000000     -5.915760000000000      2.037890000000000
H      -9.415039999999999     -5.828140000000000      4.382710000000000
C     -10.801800000000000     -6.739990000000000      2.932740000000000
C      -9.673850000000000     -5.770370000000000      3.308270000000000
C     -10.518920000000000     -8.173030000000001      3.396400000000000
H     -11.734260000000001     -6.400020000000000      3.430600000000000
H     -10.967390000000000     -6.703940000000000      1.834620000000000
H      -9.589770000000000     -8.559960000000000      2.952300000000000
H     -10.408030000000000     -8.175509999999999      4.501640000000000
C     -11.648199999999999     -9.122730000000001      3.005550000000000
H     -10.020379999999999     -4.740380000000000      3.074510000000000
H     -12.612220000000001     -8.783780000000000      3.439750000000000
H     -11.742080000000000     -9.176410000000001      1.899480000000000
H     -11.423640000000001    -10.140660000000000      3.389730000000000
C      -7.092700000000000     -2.877250000000000      4.139000000000000
C      -7.556890000000000     -2.539820000000000      2.889260000000000
C      -6.865810000000000     -3.310430000000000      1.978000000000000
C      -6.021530000000000     -4.103370000000000      2.641940000000000
N      -6.107580000000000     -3.872350000000000      4.029520000000000
C      -5.160530000000000     -5.173880000000000      2.024490000000000
N      -5.905720000000000     -6.453420000000000      1.980620000000000
C      -5.453020000000000     -7.509190000000000      2.911210000000000
H      -8.335030000000000     -1.819440000000000      2.670160000000000
H      -7.440560000000000     -2.457470000000000      5.070820000000000
H      -7.023180000000000     -3.292770000000000      0.920810000000000
H      -4.195930000000000     -5.228900000000000      2.563720000000000
H      -4.903450000000000     -4.873210000000000      0.985500000000000
C      -5.475390000000000     -7.024610000000000      4.369790000000000
C      -6.409060000000000     -8.700850000000001      2.786980000000000
C      -4.036910000000000     -8.001899999999999      2.519990000000000
H      -6.496530000000000     -6.679130000000000      4.638310000000000
H      -5.187680000000000     -7.854220000000000      5.049590000000000
H      -4.759600000000000     -6.195940000000000      4.537440000000000
H      -6.436610000000000     -9.085410000000000      1.750770000000000
H      -6.092870000000000     -9.537280000000001      3.444460000000000
H      -7.425710000000000     -8.391970000000001      3.081230000000000
H      -4.030030000000000     -8.411540000000000      1.486030000000000
H      -3.275820000000000     -7.199030000000000      2.567210000000000
H      -3.706550000000000     -8.811199999999999      3.204130000000000

-C 0
6-31g(d,p)
****
-H 0
6-31g(d,p)
****
-Mg 0
6-31g(d,p)
****
-N 0
6-31+g(d,p)
****
-Na 0
6-31g(d,p)
****
-O 0
6-31+g(d,p)
****


