%chk=lowest10_c1_a1_speciation0_speciationDFT11_rank07_E130.46.chk
%nprocshared=20
%mem=40GB
#p opt=loose PM7/gen scf=xqc 

lowest10_c1_a1_speciation0_speciationDFT11_rank07_E130.46 DFT input

0 1
Na     -2.018340000000000      1.199600000000000     -0.925340000000000
C      -0.584840000000000     -0.994800000000000      0.979720000000000
C       0.597280000000000      0.986630000000000      0.979330000000000
O      -0.004540000000000      0.002130000000000      0.163910000000000
C      -1.224620000000000     -2.060760000000000      0.097840000000000
C       1.213870000000000      2.066000000000000      0.096910000000000
H       0.189970000000000     -1.493890000000000      1.604320000000000
H      -1.384650000000000     -0.562410000000000      1.623030000000000
H      -0.160230000000000      1.476050000000000      1.632960000000000
H       1.413770000000000      0.544370000000000      1.594370000000000
H       0.431200000000000      2.547580000000000     -0.527030000000000
H       1.691440000000000      2.843550000000000      0.730830000000000
H       1.986830000000000      1.625470000000000     -0.568110000000000
H      -0.458850000000000     -2.531860000000000     -0.554450000000000
H      -1.684450000000000     -2.848260000000000      0.732630000000000
H      -2.015300000000000     -1.610490000000000     -0.539290000000000
Na      2.016160000000000     -1.198200000000000     -0.929730000000000
Mg      1.543630000000000     -2.562970000000000      9.436360000000001
H      -0.370120000000000     -0.672260000000000     10.503030000000001
C       1.236940000000000      0.447250000000000      9.575810000000001
C       0.729210000000000     -0.760350000000000     10.340680000000001
C       0.472800000000000      0.735510000000000      8.270730000000000
H       1.140190000000000      1.331500000000000     10.235310000000000
H       2.303210000000000      0.260040000000000      9.362200000000000
H       0.503720000000000     -0.133860000000000      7.579310000000000
H      -0.588750000000000      0.968000000000000      8.501500000000000
C       1.075500000000000      1.954910000000000      7.572690000000000
H       1.208100000000000     -0.832620000000000     11.333200000000000
H       1.050120000000000      2.836520000000000      8.248530000000001
H       2.126840000000000      1.756340000000000      7.293160000000000
H       0.509520000000000      2.197520000000000      6.649340000000000
C      -3.486620000000000     -2.110870000000000      6.188080000000000
C      -2.741030000000000     -1.076310000000000      6.707240000000000
C      -2.806250000000000     -1.169180000000000      8.085940000000001
C      -3.546370000000000     -2.240150000000000      8.388579999999999
N      -4.017190000000000     -2.885140000000000      7.233830000000000
C      -3.850840000000000     -2.713280000000000      9.775380000000000
N      -2.604180000000000     -2.983280000000000     10.492740000000000
C      -2.668910000000000     -3.155020000000000     11.965800000000000
H      -2.201870000000000     -0.334170000000000      6.130930000000000
H      -3.638040000000000     -2.320460000000000      5.140640000000000
H      -2.332840000000000     -0.510350000000000      8.797070000000000
H      -4.450660000000000     -1.931630000000000     10.275969999999999
H      -4.445210000000000     -3.648740000000000      9.706640000000000
C      -3.603320000000000     -4.331270000000000     12.305370000000000
C      -1.260530000000000     -3.478980000000000     12.479139999999999
C      -3.160860000000000     -1.876640000000000     12.690320000000000
H      -3.264600000000000     -5.248070000000000     11.776529999999999
H      -3.609230000000000     -4.532480000000000     13.397890000000000
H      -4.646950000000000     -4.111400000000000     11.997270000000000
H      -0.564640000000000     -2.642650000000000     12.255210000000000
H      -1.266250000000000     -3.634690000000000     13.581350000000000
H      -0.879970000000000     -4.401170000000000     11.995920000000000
H      -2.479260000000000     -1.020250000000000     12.502280000000001
H      -4.186450000000000     -1.586130000000000     12.389450000000000
H      -3.201120000000000     -2.050440000000000     13.789569999999999
Mg     -0.840550000000000     -2.602830000000000      9.413489999999999
H       1.072630000000000     -4.474950000000000      8.313680000000000
C      -0.538910000000000     -4.238090000000000      6.884040000000000
C      -0.026730000000000     -4.290450000000000      8.310820000000000
C       0.225320000000000     -3.258900000000000      5.974610000000000
H      -0.446060000000000     -5.253870000000000      6.453210000000000
H      -1.604260000000000     -3.956430000000000      6.941210000000000
H       0.198530000000000     -2.223150000000000      6.376290000000000
H       1.285820000000000     -3.578590000000000      5.888030000000000
C      -0.380680000000000     -3.269840000000000      4.571030000000000
H      -0.504270000000000     -5.110830000000000      8.875249999999999
H      -0.359950000000000     -4.298210000000000      4.150810000000000
H      -1.430500000000000     -2.924010000000000      4.602940000000000
H       0.187070000000000     -2.597530000000000      3.895550000000000
C       4.187190000000000     -0.018960000000000      7.392110000000000
C       3.441060000000000     -0.985950000000000      6.756430000000000
C       3.506430000000000     -2.133200000000000      7.526620000000000
C       4.247550000000000     -1.859640000000000      8.604760000000001
N       4.718560000000000     -0.537160000000000      8.585200000000000
C       4.553540000000000     -2.823670000000000      9.707760000000000
N       3.307980000000000     -3.307090000000000     10.304940000000000
C       3.374040000000000     -4.498330000000000     11.188459999999999
H       2.901530000000000     -0.858170000000000      5.825740000000000
H       4.338600000000000      0.992840000000000      7.049590000000000
H       3.032780000000000     -3.078460000000000      7.311850000000000
H       5.150810000000000     -3.649150000000000      9.279750000000000
H       5.151200000000000     -2.297000000000000     10.481360000000000
C       4.313920000000000     -4.207610000000000     12.373490000000000
C       1.967400000000000     -4.778970000000000     11.731210000000001
C       3.860470000000000     -5.765270000000000     10.440329999999999
H       3.979170000000000     -3.291310000000000     12.905690000000000
H       4.321240000000000     -5.054110000000000     13.092890000000001
H       5.356440000000000     -4.052240000000000     12.024979999999999
H       1.268050000000000     -5.001540000000000     10.897470000000000
H       1.974470000000000     -5.656290000000000     12.416370000000001
H       1.590260000000000     -3.899290000000000     12.290500000000000
H       3.175190000000000     -6.028270000000000      9.606949999999999
H       4.884860000000000     -5.652030000000000     10.034710000000000
H       3.901460000000000     -6.631180000000000     11.139410000000000

-C 0
6-31g(d,p)
****
-H 0
6-31g(d,p)
****
-Mg 0
6-31g(d,p)
****
-N 0
6-31+g(d,p)
****
-Na 0
6-31g(d,p)
****
-O 0
6-31+g(d,p)
****


