%chk=lowest10_c1_a1_speciation0_speciationDFT133_rank06_E178.73.chk
%nprocshared=20
%mem=40GB
#p opt=loose PM7/gen scf=xqc 

lowest10_c1_a1_speciation0_speciationDFT133_rank06_E178.73 DFT input

0 1
Na     -0.029660000000000     -2.343760000000000     -0.921370000000000
C       1.154140000000000     -0.009530000000000      0.977650000000000
C      -1.153620000000000      0.022350000000000      0.979030000000000
O      -0.000200000000000     -0.003750000000000      0.162860000000000
C       2.397830000000000     -0.030860000000000      0.096000000000000
C      -2.397610000000000      0.016930000000000      0.097090000000000
H       1.199970000000000      0.908680000000000      1.606390000000000
H       1.178860000000000     -0.919440000000000      1.616560000000000
H      -1.197480000000000     -0.879010000000000      1.632380000000000
H      -1.179530000000000      0.949970000000000      1.594900000000000
H      -2.424290000000000     -0.901280000000000     -0.527330000000000
H      -3.309830000000000      0.041800000000000      0.730990000000000
H      -2.403470000000000      0.906740000000000     -0.567860000000000
H       2.424630000000000      0.868290000000000     -0.555520000000000
H       3.309910000000000     -0.036850000000000      0.730730000000000
H       2.403510000000000     -0.940360000000000     -0.541590000000000
Na      0.029420000000000      2.340490000000000     -0.927780000000000
Mg      2.523580000000000     -5.200100000000000      6.954130000000000
C       1.810170000000000     -7.467060000000000      8.705109999999999
C       2.821250000000000     -8.556460000000000      6.865650000000000
O       2.356120000000000     -7.357940000000000      7.414570000000000
C       2.842900000000000     -7.124400000000000      9.763769999999999
C       3.728990000000000     -8.203139999999999      5.692130000000000
H       0.977720000000000     -6.734490000000000      8.781520000000000
H       1.378140000000000     -8.451739999999999      8.897980000000000
H       3.402420000000000     -9.154460000000000      7.598380000000000
H       1.966570000000000     -9.126440000000001      6.470500000000000
H       4.624180000000000     -7.656250000000000      6.051350000000000
H       4.048120000000000     -9.125330000000000      5.166700000000000
H       3.201000000000000     -7.543770000000000      4.971240000000000
H       3.200470000000000     -6.081640000000000      9.626429999999999
H       2.379160000000000     -7.216210000000000     10.768980000000001
H       3.700370000000000     -7.823060000000000      9.693070000000001
H       5.181630000000000     -4.921120000000000      7.049400000000000
C       4.864610000000000     -3.224610000000000      5.668800000000000
C       4.706960000000000     -4.672390000000000      6.077840000000000
C       4.342100000000000     -2.262110000000000      6.744900000000000
H       5.941160000000000     -3.047620000000000      5.491630000000000
H       4.308010000000000     -3.063140000000000      4.721240000000000
H       3.259500000000000     -2.407960000000000      6.916200000000000
H       4.870040000000000     -2.441210000000000      7.705820000000000
C       4.559570000000000     -0.818120000000000      6.311450000000000
H       4.983470000000000     -5.380290000000000      5.273050000000000
H       5.641440000000000     -0.638390000000000      6.140330000000000
H       4.000130000000000     -0.610450000000000      5.373670000000000
H       4.200350000000000     -0.125880000000000      7.101510000000000
C       1.791850000000000     -3.145020000000000      9.048750000000000
C       0.767200000000000     -2.263540000000000      9.311940000000000
C      -0.219390000000000     -2.506130000000000      8.367120000000000
C       0.249420000000000     -3.524580000000000      7.569130000000000
N       1.470090000000000     -3.869180000000000      7.971220000000000
C      -0.458540000000000     -4.193790000000000      6.425770000000000
N       0.458120000000000     -4.944920000000000      5.545550000000000
C       0.733780000000000     -4.317320000000000      4.239700000000000
H       0.752650000000000     -1.522700000000000     10.096560000000000
H       2.729740000000000     -3.237180000000000      9.585260000000000
H      -1.161630000000000     -1.991070000000000      8.262330000000000
H      -1.137150000000000     -4.920820000000000      6.870050000000000
H      -1.115350000000000     -3.485410000000000      5.896990000000000
C       1.180680000000000     -2.863420000000000      4.430860000000000
C       1.887080000000000     -5.070560000000000      3.545820000000000
C      -0.509770000000000     -4.406350000000000      3.337090000000000
H       2.063410000000000     -2.851880000000000      5.090330000000000
H       1.442720000000000     -2.405460000000000      3.459830000000000
H       0.397480000000000     -2.242460000000000      4.904510000000000
H       1.636660000000000     -6.119050000000000      3.355760000000000
H       2.114390000000000     -4.617360000000000      2.557090000000000
H       2.807920000000000     -5.057000000000000      4.157800000000000
H      -0.817880000000000     -5.464970000000000      3.205170000000000
H      -1.365640000000000     -3.853120000000000      3.763870000000000
H      -0.297260000000000     -3.975000000000000      2.338260000000000
Mg     -0.408640000000000     -7.368210000000000      5.703910000000000
C      -3.127770000000000     -7.961520000000000      4.399610000000000
C      -3.443410000000000     -5.631210000000000      4.757930000000000
O      -2.601030000000000     -6.753980000000000      4.908380000000000
C      -3.150820000000000     -8.007920000000000      2.876360000000000
C      -4.819020000000000     -5.786220000000000      5.399890000000000
H      -2.463360000000000     -8.761930000000000      4.765880000000000
H      -4.112940000000000     -8.218159999999999      4.828310000000000
H      -2.950330000000000     -4.806490000000000      5.306120000000000
H      -3.503160000000000     -5.310330000000000      3.698120000000000
H      -4.721510000000000     -6.142620000000000      6.446270000000000
H      -5.326930000000000     -4.801360000000000      5.401220000000000
H      -5.443910000000000     -6.492280000000000      4.819440000000000
H      -2.150950000000000     -7.798110000000000      2.455820000000000
H      -3.462440000000000     -9.022440000000000      2.551420000000000
H      -3.868110000000000     -7.266200000000000      2.477690000000000
H      -0.036090000000000     -7.632850000000000      3.020580000000000
C      -0.008700000000000     -9.749990000000000      3.433650000000000
C       0.348030000000000     -8.309500000000000      3.807700000000000
C       0.316060000000000    -10.083180000000000      1.970030000000000
H       0.531940000000000    -10.455790000000000      4.093720000000000
H      -1.093180000000000     -9.907040000000000      3.555880000000000
H      -0.005890000000000    -11.129610000000000      1.780970000000000
H      -0.267360000000000     -9.416910000000000      1.296540000000000
C       1.800420000000000     -9.964600000000001      1.631870000000000
H       1.447290000000000     -8.232760000000001      3.810740000000000
H       2.150920000000000     -8.917310000000001      1.740030000000000
H       2.398120000000000    -10.626980000000000      2.292230000000000
H       1.959310000000000    -10.269720000000000      0.576370000000000
C       1.038330000000000    -11.674149999999999      9.415590000000000
C      -0.104860000000000    -12.447450000000000      9.355280000000000
C      -0.915600000000000    -11.898009999999999      8.379580000000001
C      -0.263480000000000    -10.848500000000000      7.917330000000000
N       0.973690000000000    -10.721610000000000      8.560280000000001
C      -0.763460000000000     -9.906280000000001      6.876160000000000
N      -0.866010000000000     -8.533759999999999      7.377990000000000
C      -1.961620000000000     -8.219989999999999      8.357460000000000
H      -0.331160000000000    -13.306550000000000      9.969410000000000
H       1.881120000000000    -11.811990000000000     10.073890000000000
H      -1.895200000000000    -12.225350000000001      8.067610000000000
H      -1.708410000000000    -10.236490000000000      6.405540000000000
H      -0.014650000000000     -9.909020000000000      6.082180000000000
C      -1.504160000000000     -8.602959999999999      9.776479999999999
C      -2.253610000000000     -6.710410000000000      8.399089999999999
C      -3.291750000000000     -8.936489999999999      8.032980000000000
H      -0.581630000000000     -8.050730000000000     10.045510000000000
H      -2.280040000000000     -8.344230000000000     10.525589999999999
H      -1.309880000000000     -9.680110000000001      9.878069999999999
H      -2.644910000000000     -6.358910000000000      7.430330000000000
H      -3.037830000000000     -6.481420000000000      9.157320000000000
H      -1.350980000000000     -6.135450000000000      8.688549999999999
H      -3.674060000000000     -8.630520000000001      7.041680000000000
H      -3.180260000000000    -10.037240000000001      8.057779999999999
H      -4.065620000000000     -8.677750000000000      8.787440000000000

-C 0
6-31g(d,p)
****
-H 0
6-31g(d,p)
****
-Mg 0
6-31g(d,p)
****
-N 0
6-31+g(d,p)
****
-Na 0
6-31g(d,p)
****
-O 0
6-31+g(d,p)
****


