%chk=lowest10_c1_a1_speciation0_speciationDFT11_rank06_E130.45.chk
%nprocshared=20
%mem=40GB
#p opt=loose PM7/gen scf=xqc 

lowest10_c1_a1_speciation0_speciationDFT11_rank06_E130.45 DFT input

0 1
Na     -0.029710000000000     -2.347610000000000     -0.924960000000000
C       1.154150000000000     -0.010020000000000      0.979340000000000
C      -1.152980000000000      0.023750000000000      0.979820000000000
O       0.000310000000000     -0.003480000000000      0.164040000000000
C       2.396760000000000     -0.030470000000000      0.096890000000000
C      -2.396120000000000      0.017850000000000      0.097430000000000
H       1.200000000000000      0.908410000000000      1.607830000000000
H       1.179500000000000     -0.920830000000000      1.618680000000000
H      -1.197290000000000     -0.877300000000000      1.633220000000000
H      -1.178740000000000      0.951670000000000      1.595200000000000
H      -2.421640000000000     -0.900590000000000     -0.526760000000000
H      -3.308320000000000      0.042410000000000      0.731280000000000
H      -2.401290000000000      0.907620000000000     -0.567500000000000
H       2.422200000000000      0.868970000000000     -0.554400000000000
H       3.308920000000000     -0.036450000000000      0.731260000000000
H       2.401430000000000     -0.939760000000000     -0.541030000000000
Na      0.029470000000000      2.345260000000000     -0.929980000000000
Mg      0.370350000000000     -0.868720000000000      9.436790000000000
H      -0.310120000000000     -3.471390000000000     10.503539999999999
C      -2.083200000000000     -2.639380000000000      9.576400000000000
C      -0.783490000000000     -2.475300000000000     10.341210000000000
C      -1.950800000000000     -3.445280000000000      8.271350000000000
H      -2.800600000000000     -3.165290000000000     10.235910000000001
H      -2.454210000000000     -1.622350000000000      9.362760000000000
H      -1.213380000000000     -2.983830000000000      7.579910000000000
H      -1.621350000000000     -4.480860000000000      8.502120000000000
C      -3.308210000000000     -3.533020000000000      7.573390000000000
H      -0.960330000000000     -2.024440000000000     11.333740000000001
H      -4.059010000000000     -3.995800000000000      8.249240000000000
H      -3.661910000000000     -2.523250000000000      7.293830000000000
H      -3.235360000000000     -4.144520000000000      6.650080000000000
C       2.494100000000000     -5.451120000000000      6.188920000000000
C       1.225340000000000     -5.322740000000000      6.708080000000000
C       1.338350000000000     -5.332770000000000      8.086729999999999
C       2.635910000000000     -5.438220000000000      8.389340000000001
N       3.429920000000000     -5.523430000000000      7.234630000000000
C       3.197850000000000     -5.465290000000000      9.776050000000000
N       2.808290000000000     -4.250630000000000     10.493320000000001
C       2.989370000000000     -4.220830000000000     11.966360000000000
H       0.313030000000000     -5.226930000000000      6.131820000000000
H       2.751350000000000     -5.477480000000000      5.141500000000000
H       0.531060000000000     -5.252200000000000      8.797829999999999
H       2.820810000000000     -6.375590000000000     10.276619999999999
H       4.305160000000000     -5.512290000000000      9.707290000000000
C       4.475240000000000     -4.441940000000000     12.305920000000000
C       2.565740000000000     -2.839160000000000     12.479690000000000
C       2.128230000000000     -5.286070000000000     12.690870000000000
H       5.099850000000000     -3.690210000000000     11.777060000000001
H       4.652460000000000     -4.346450000000000     13.398440000000001
H       4.806640000000000     -5.455680000000000     11.997820000000001
H       1.493510000000000     -2.654680000000000     12.255730000000000
H       2.703440000000000     -2.766250000000000     13.581890000000000
H       3.174090000000000     -2.048500000000000     11.996440000000000
H       1.045780000000000     -5.123990000000000     12.502800000000001
H       2.389440000000000     -6.319520000000000     12.390000000000001
H       2.298870000000000     -5.234050000000000     13.790110000000000
Mg      1.597080000000000     -2.913470000000000      9.413890000000000
H       2.261730000000000     -0.320360000000000      8.314299999999999
C       2.862300000000000     -1.834010000000000      6.884300000000000
C       2.651640000000000     -1.364660000000000      8.311230000000000
C       1.632030000000000     -1.661550000000000      5.975080000000000
H       3.695620000000000     -1.245810000000000      6.453470000000000
H       3.150930000000000     -2.897550000000000      6.941360000000000
H       0.748800000000000     -2.202980000000000      6.377070000000000
H       1.378280000000000     -0.583410000000000      5.888260000000000
C       1.944070000000000     -2.180980000000000      4.571600000000000
H       3.600880000000000     -1.368220000000000      8.875629999999999
H       2.822880000000000     -1.647460000000000      4.149860000000000
H       2.171670000000000     -3.262600000000000      4.604600000000000
H       1.076340000000000     -2.028630000000000      3.897180000000000
C      -3.154470000000000      0.148780000000000      7.392280000000000
C      -1.943980000000000     -0.013710000000000      6.756510000000000
C      -0.983140000000000      0.616430000000000      7.526830000000000
C      -1.590620000000000      1.121320000000000      8.605060000000000
N      -2.971400000000000      0.867900000000000      8.585480000000000
C      -0.908800000000000      1.868270000000000      9.708170000000001
N       0.132640000000000      1.031300000000000     10.305360000000000
C       1.131230000000000      1.684130000000000     11.188920000000000
H      -1.784840000000000     -0.544670000000000      5.825710000000000
H      -4.106420000000000     -0.225990000000000      7.049770000000000
H       0.072290000000000      0.678940000000000      7.312080000000000
H      -0.492560000000000      2.798300000000000      9.280239999999999
H      -1.663770000000000      2.122460000000000     10.481760000000000
C       0.409510000000000      2.352740000000000     12.373950000000001
C       2.077590000000000      0.606280000000000     11.731690000000000
C       1.985220000000000      2.738870000000000     10.440820000000000
H      -0.216650000000000      1.604680000000000     12.906160000000000
H       1.138940000000000      2.782320000000000     13.093360000000001
H      -0.246310000000000      3.177900000000000     12.025449999999999
H       2.620020000000000      0.111900000000000     10.897959999999999
H       2.833830000000000      1.051070000000000     12.416860000000000
H       1.504330000000000     -0.160170000000000     12.290990000000001
H       2.555630000000000      2.276910000000000      9.607430000000001
H       1.374960000000000      3.569400000000000     10.035190000000000
H       2.714620000000000      3.207330000000000     11.139900000000001

-C 0
6-31g(d,p)
****
-H 0
6-31g(d,p)
****
-Mg 0
6-31g(d,p)
****
-N 0
6-31+g(d,p)
****
-Na 0
6-31g(d,p)
****
-O 0
6-31+g(d,p)
****


