%chk=lowest10_c1_a1_speciation0_speciationDFT11_rank10_E130.55.chk
%nprocshared=20
%mem=40GB
#p opt=loose PM7/gen scf=xqc 

lowest10_c1_a1_speciation0_speciationDFT11_rank10_E130.55 DFT input

0 1
Na     -2.018290000000000      1.199590000000000     -0.925370000000000
C      -0.583880000000000     -0.994940000000000      0.978940000000000
C       0.597800000000000      0.986490000000000      0.979110000000000
O      -0.003860000000000      0.002200000000000      0.163360000000000
C      -1.223980000000000     -2.060710000000000      0.097060000000000
C       1.214240000000000      2.066020000000000      0.096890000000000
H       0.191290000000000     -1.494030000000000      1.603020000000000
H      -1.383610000000000     -0.562620000000000      1.622420000000000
H      -0.159850000000000      1.475790000000000      1.632690000000000
H       1.414200000000000      0.544130000000000      1.594310000000000
H       0.431440000000000      2.547520000000000     -0.526990000000000
H       1.691670000000000      2.843570000000000      0.730880000000000
H       1.987190000000000      1.625590000000000     -0.568190000000000
H      -0.458380000000000     -2.531900000000000     -0.555280000000000
H      -1.683850000000000     -2.848220000000000      0.731790000000000
H      -2.014820000000000     -1.610310000000000     -0.539780000000000
Na      2.016290000000000     -1.198330000000000     -0.929600000000000
Mg      0.599620000000000     -5.081790000000000      9.173310000000001
H       3.193890000000000     -4.369750000000000     10.240000000000000
C       3.359890000000000     -6.321290000000000      9.312880000000000
C       2.567930000000000     -5.277750000000000     10.077680000000001
C       3.991640000000000     -5.803670000000000      8.007840000000000
H       4.174030000000000     -6.679620000000000      9.972390000000001
H       2.664630000000000     -7.151100000000000      9.099230000000000
H       3.223300000000000     -5.395770000000000      7.316390000000000
H       4.723750000000000     -5.000560000000000      8.238610000000000
C       4.746340000000000     -6.935360000000000      7.309900000000000
H       2.265880000000000     -5.656330000000000     11.070190000000000
H       5.522520000000000     -7.354180000000000      7.985740000000000
H       4.048710000000000     -7.746550000000000      7.030330000000000
H       5.239500000000000     -6.566530000000000      6.386590000000000
C       3.505900000000000     -0.951180000000000      5.925000000000000
C       4.029250000000000     -2.114130000000000      6.444160000000000
C       3.981530000000000     -2.011280000000000      7.822840000000000
C       3.424040000000000     -0.834890000000000      8.125520000000000
N       3.100690000000000     -0.104640000000000      6.970810000000000
C       3.166620000000000     -0.334760000000000      9.512340000000000
N       2.309540000000000     -1.279480000000000     10.229680000000000
C       2.193180000000000     -1.137580000000000     11.702730000000001
H       4.402460000000000     -2.952130000000000      5.867950000000000
H       3.399950000000000     -0.715200000000000      4.877560000000000
H       4.315490000000000     -2.750700000000000      8.533930000000000
H       4.143500000000000     -0.206160000000000     10.012869999999999
H       2.653660000000000      0.647690000000000      9.443659999999999
C       1.641720000000000      0.259770000000000     12.042310000000001
C       1.208430000000000     -2.195300000000000     12.216060000000001
C       3.546270000000000     -1.350740000000000     12.427239999999999
H       0.678390000000000      0.424830000000000     11.513450000000001
H       1.470420000000000      0.365480000000000     13.134829999999999
H       2.353950000000000      1.053640000000000     11.734209999999999
H       1.584780000000000     -3.216120000000000     11.992120000000000
H       1.076440000000000     -2.112500000000000     13.318270000000000
H       0.219510000000000     -2.063790000000000     11.732830000000000
H       3.947120000000000     -2.369210000000000     12.239190000000001
H       4.310650000000000     -0.607800000000000     12.126360000000000
H       3.415890000000000     -1.228970000000000     13.526479999999999
Mg      1.757220000000000     -2.997050000000000      9.150410000000001
H      -0.820730000000000     -3.717880000000000      8.050710000000000
C       0.190050000000000     -2.440800000000000      6.621110000000000
C      -0.111260000000000     -2.858070000000000      8.047860000000000
C       0.655930000000000     -3.592210000000000      5.711620000000000
H      -0.736120000000000     -2.013340000000000      6.190300000000000
H       0.966580000000000     -1.658900000000000      6.678050000000000
H       1.566760000000000     -4.086530000000000      6.112740000000000
H      -0.150940000000000     -4.351060000000000      5.625310000000000
C       0.947530000000000     -3.060980000000000      4.308140000000000
H      -0.582960000000000     -2.034260000000000      8.612180000000000
H       0.044640000000000     -2.565880000000000      3.891470000000000
H       1.770750000000000     -2.323270000000000      4.339850000000000
H       1.246190000000000     -3.887130000000000      3.629920000000000
C       1.480960000000000     -8.643250000000000      7.129240000000000
C       1.016580000000000     -7.513600000000000      6.493560000000000
C      -0.009650000000000     -6.996570000000000      7.263700000000000
C      -0.143290000000000     -7.775170000000000      8.341830000000000
N       0.766500000000000     -8.844320000000000      8.322319999999999
C      -1.131140000000000     -7.558110000000000      9.444780000000000
N      -0.926990000000000     -6.237690000000000     10.041900000000000
C      -1.991650000000000     -5.699270000000000     10.925400000000000
H       1.396980000000000     -7.110230000000000      5.562900000000000
H       2.281510000000000     -9.280260000000000      6.786700000000000
H      -0.591440000000000     -6.113750000000000      7.048910000000000
H      -2.144650000000000     -7.662610000000000      9.016740000000000
H      -0.973860000000000     -8.339010000000000     10.218389999999999
C      -2.209820000000000     -6.658590000000000     12.110429999999999
C      -1.531360000000000     -4.340770000000000     11.468140000000000
C      -3.332060000000000     -5.487060000000000     10.177260000000000
H      -1.248890000000000     -6.826840000000000     12.642620000000001
H      -2.946560000000000     -6.241680000000000     12.829829999999999
H      -2.596530000000000     -7.639120000000000     11.761920000000000
H      -1.374430000000000     -3.623830000000000     10.634390000000000
H      -2.294670000000000     -3.908220000000000     12.153290000000000
H      -0.580960000000000     -4.454000000000000     12.027430000000001
H      -3.217180000000000     -4.762100000000000      9.343870000000001
H      -3.746190000000000     -6.430830000000000      9.771630000000000
H      -4.102460000000000     -5.089600000000000     10.876329999999999

-C 0
6-31g(d,p)
****
-H 0
6-31g(d,p)
****
-Mg 0
6-31g(d,p)
****
-N 0
6-31+g(d,p)
****
-Na 0
6-31g(d,p)
****
-O 0
6-31+g(d,p)
****


