%chk=lowest10_c1_a1_speciation0_speciationDFT133_rank03_E178.54.chk
%nprocshared=20
%mem=40GB
#p opt=loose PM7/gen scf=xqc 

lowest10_c1_a1_speciation0_speciationDFT133_rank03_E178.54 DFT input

0 1
Na     -2.014150000000000      1.197080000000000     -0.923090000000000
C      -0.585500000000000     -0.995580000000000      0.979740000000000
C       0.597290000000000      0.986710000000000      0.978470000000000
O      -0.004770000000000      0.001370000000000      0.163590000000000
C      -1.224800000000000     -2.063520000000000      0.098940000000000
C       1.214290000000000      2.066820000000000      0.096200000000000
H       0.188780000000000     -1.493150000000000      1.605730000000000
H      -1.385710000000000     -0.563000000000000      1.622280000000000
H      -0.160040000000000      1.476150000000000      1.632280000000000
H       1.413740000000000      0.544830000000000      1.593780000000000
H       0.432240000000000      2.549400000000000     -0.527740000000000
H       1.692010000000000      2.844410000000000      0.730150000000000
H       1.987660000000000      1.627310000000000     -0.569010000000000
H      -0.459330000000000     -2.535390000000000     -0.553090000000000
H      -1.684360000000000     -2.850990000000000      0.734300000000000
H      -2.015820000000000     -1.614670000000000     -0.538910000000000
Na      2.012090000000000     -1.196060000000000     -0.927420000000000
Mg     -1.897090000000000     -5.137050000000000      7.378760000000000
C      -2.685550000000000     -6.910520000000000      9.603100000000000
C      -4.766240000000000     -6.027680000000000      8.907430000000000
O      -3.374280000000000     -6.001940000000000      8.781140000000001
C      -2.362890000000000     -8.188890000000001      8.850479999999999
C      -5.351570000000000     -5.316130000000000      7.692080000000000
H      -1.727950000000000     -6.433140000000000      9.904019999999999
H      -3.225080000000000     -7.136670000000000     10.525720000000000
H      -5.164310000000000     -7.063400000000000      8.940060000000001
H      -5.056480000000000     -5.457890000000000      9.803319999999999
H      -5.111740000000000     -5.878110000000000      6.766790000000000
H      -6.451730000000000     -5.229860000000000      7.794850000000000
H      -4.920040000000000     -4.298340000000000      7.586730000000000
H      -1.722640000000000     -7.964090000000000      7.970920000000000
H      -1.816530000000000     -8.881580000000000      9.525470000000000
H      -3.300600000000000     -8.673620000000000      8.512700000000001
H      -2.692030000000000     -6.299250000000000      5.106150000000000
C      -1.792730000000000     -4.542180000000000      4.111120000000000
C      -2.722240000000000     -5.190070000000000      5.113530000000000
C      -0.340610000000000     -5.007950000000000      4.288990000000000
H      -2.156520000000000     -4.810360000000000      3.102450000000000
H      -1.849810000000000     -3.440130000000000      4.237600000000000
H       0.048260000000000     -4.724500000000000      5.284660000000000
H      -0.280550000000000     -6.113500000000000      4.197920000000000
C       0.551680000000000     -4.365410000000000      3.235140000000000
H      -3.753280000000000     -4.790070000000000      5.067160000000000
H       0.189850000000000     -4.637590000000000      2.221620000000000
H       0.538060000000000     -3.260080000000000      3.346010000000000
H       1.596380000000000     -4.721920000000000      3.352810000000000
C       0.962900000000000     -6.119860000000000      7.397830000000000
C       2.198430000000000     -5.683720000000000      7.821430000000000
C       1.987380000000000     -4.498980000000000      8.511870000000000
C       0.631620000000000     -4.265580000000000      8.476770000000000
N       0.039680000000000     -5.228490000000000      7.774700000000000
C      -0.121490000000000     -3.136240000000000      9.119759999999999
N      -1.475560000000000     -2.959080000000000      8.559080000000000
C      -1.644440000000000     -1.790130000000000      7.675750000000000
H       3.142630000000000     -6.171670000000000      7.634160000000000
H       0.746080000000000     -7.013610000000000      6.823250000000000
H       2.734580000000000     -3.871440000000000      8.972310000000000
H      -0.245640000000000     -3.408730000000000     10.167100000000000
H       0.484290000000000     -2.216770000000000      9.140499999999999
C      -0.565350000000000     -1.783990000000000      6.586170000000000
C      -3.014320000000000     -1.877100000000000      6.972480000000000
C      -1.611020000000000     -0.493160000000000      8.503740000000001
H      -0.623410000000000     -2.734230000000000      6.030860000000000
H      -0.717920000000000     -0.938950000000000      5.887900000000000
H       0.454240000000000     -1.702250000000000      7.006990000000000
H      -3.843640000000000     -1.866500000000000      7.686810000000000
H      -3.167400000000000     -1.005930000000000      6.300080000000000
H      -3.106070000000000     -2.802330000000000      6.374040000000000
H      -2.400220000000000     -0.510790000000000      9.284570000000000
H      -0.637210000000000     -0.353730000000000      9.006729999999999
H      -1.780730000000000      0.387910000000000      7.853000000000000
Mg     -3.018770000000000     -3.325960000000000     10.592829999999999
C      -2.976690000000000     -1.167350000000000     12.780540000000000
C      -0.812480000000000     -0.758480000000000     11.882009999999999
O      -1.991100000000000     -1.534230000000000     11.837970000000000
C      -3.664530000000000      0.150200000000000     12.443059999999999
C      -0.110160000000000     -0.757500000000000     13.236689999999999
H      -3.730280000000000     -1.972340000000000     12.762250000000000
H      -2.604840000000000     -1.176160000000000     13.820660000000000
H      -0.105720000000000     -1.240590000000000     11.180669999999999
H      -0.988250000000000      0.265430000000000     11.494160000000001
H       0.016020000000000     -1.795010000000000     13.609629999999999
H       0.889110000000000     -0.292480000000000     13.121960000000000
H      -0.682350000000000     -0.160720000000000     13.973150000000000
H      -4.076570000000000      0.133890000000000     11.418080000000000
H      -4.500500000000000      0.312940000000000     13.154840000000000
H      -2.951270000000000      0.991490000000000     12.527270000000000
H      -4.543560000000000     -1.229660000000000      9.762230000000001
C      -6.086200000000000     -2.128510000000000     10.972890000000000
C      -4.902840000000000     -2.246830000000000     10.009670000000000
C      -7.118920000000000     -1.084890000000000     10.522300000000000
H      -6.586670000000000     -3.110700000000000     11.077610000000000
H      -5.726890000000000     -1.804010000000000     11.963490000000000
H      -7.917690000000000     -1.043340000000000     11.293430000000001
H      -6.639100000000000     -0.082440000000000     10.469880000000000
C      -7.762540000000000     -1.405130000000000      9.175110000000000
H      -5.278730000000000     -2.706310000000000      9.081310000000000
H      -7.009510000000000     -1.388750000000000      8.360220000000000
H      -8.250610000000000     -2.401420000000000      9.210610000000001
H      -8.529600000000000     -0.636110000000000      8.945610000000000
C      -5.468950000000000     -8.243410000000001     12.648830000000000
C      -5.663170000000000     -7.889490000000000     13.970020000000000
C      -5.317800000000000     -6.556090000000000     14.088070000000000
C      -4.930470000000000     -6.175770000000000     12.885669999999999
N      -5.043810000000000     -7.236560000000000     11.979060000000000
C      -4.420230000000000     -4.822040000000000     12.526700000000000
N      -3.052940000000000     -4.869090000000000     12.002780000000000
C      -1.937580000000000     -5.164490000000000     12.965520000000000
H      -6.000990000000000     -8.538130000000001     14.764730000000000
H      -5.631980000000000     -9.212910000000001     12.205959999999999
H      -5.326010000000000     -5.943570000000000     14.976229999999999
H      -4.513320000000000     -4.087850000000000     13.348739999999999
H      -5.065420000000000     -4.459360000000000     11.724610000000000
C      -1.815340000000000     -6.687230000000000     13.154970000000000
C      -0.583130000000000     -4.696720000000000     12.406520000000000
C      -2.125620000000000     -4.486640000000000     14.341419999999999
H      -1.621210000000000     -7.181620000000000     12.182190000000000
H      -0.971930000000000     -6.935320000000000     13.831130000000000
H      -2.719320000000000     -7.128620000000000     13.598039999999999
H      -0.562270000000000     -3.600440000000000     12.292949999999999
H       0.243520000000000     -4.956530000000000     13.107580000000000
H      -0.353840000000000     -5.194510000000000     11.442810000000000
H      -2.154900000000000     -3.386120000000000     14.239280000000001
H      -3.048850000000000     -4.831580000000000     14.844780000000000
H      -1.280680000000000     -4.740240000000000     15.017289999999999

-C 0
6-31g(d,p)
****
-H 0
6-31g(d,p)
****
-Mg 0
6-31g(d,p)
****
-N 0
6-31+g(d,p)
****
-Na 0
6-31g(d,p)
****
-O 0
6-31+g(d,p)
****


