%chk=lowest10_c1_a1_speciation7_speciationDFT45_rank08_E187.07.chk
%nprocshared=20
%mem=40GB
#p opt=loose PM7/gen scf=xqc 

lowest10_c1_a1_speciation7_speciationDFT45_rank08_E187.07 DFT input

0 1
Na      0.558310000000000     -1.288150000000000     -0.697300000000000
C       2.253350000000000      1.393510000000000     -0.603240000000000
C       1.943810000000000      0.640400000000000      1.599210000000000
O       1.381800000000000      0.747440000000000      0.304860000000000
C       3.191940000000000      0.394180000000000     -1.275750000000000
C       1.601730000000000      1.855850000000000      2.458930000000000
H       1.631980000000000      1.867520000000000     -1.392540000000000
H       2.828520000000000      2.217600000000000     -0.126400000000000
H       1.512140000000000     -0.262250000000000      2.082790000000000
H       3.043780000000000      0.481730000000000      1.573250000000000
H       0.502270000000000      1.954060000000000      2.579420000000000
H       2.057290000000000      1.732460000000000      3.464120000000000
H       2.000650000000000      2.785270000000000      2.003450000000000
H       2.610340000000000     -0.372600000000000     -1.829880000000000
H       3.847590000000000      0.930990000000000     -1.992730000000000
H       3.833200000000000     -0.111070000000000     -0.525610000000000
C       2.944360000000000     -3.174720000000000      0.554550000000000
C       1.322240000000000     -4.509100000000000     -0.580100000000000
O       1.686720000000000     -3.231000000000000     -0.092470000000000
C       4.122830000000000     -3.512980000000000     -0.357940000000000
C       1.171520000000000     -5.562040000000000      0.516720000000000
H       3.081350000000000     -2.120850000000000      0.876110000000000
H       2.954310000000000     -3.774140000000000      1.487660000000000
H       0.321490000000000     -4.389090000000000     -1.048690000000000
H       1.994540000000000     -4.848440000000000     -1.395120000000000
H       0.487080000000000     -5.192780000000000      1.309410000000000
H       0.747620000000000     -6.489100000000000      0.077280000000000
H       2.156440000000000     -5.814570000000000      0.958490000000000
H       4.095250000000000     -2.882190000000000     -1.271450000000000
H       5.070970000000000     -3.316570000000000      0.185590000000000
H       4.109440000000000     -4.584740000000000     -0.640880000000000
Na     -0.784890000000000      1.659430000000000      0.516830000000000
C      -2.295540000000000     -0.493180000000000     -1.428960000000000
C      -2.297800000000000     -1.227150000000000      0.798180000000000
O      -1.618430000000000     -0.477820000000000     -0.189190000000000
C      -1.722690000000000      0.609420000000000     -2.315220000000000
C      -2.057860000000000     -2.729710000000000      0.653910000000000
H      -2.128310000000000     -1.465090000000000     -1.939690000000000
H      -3.385300000000000     -0.296490000000000     -1.316380000000000
H      -1.887350000000000     -0.915770000000000      1.783020000000000
H      -3.383910000000000     -0.992320000000000      0.828990000000000
H      -0.972420000000000     -2.954500000000000      0.700550000000000
H      -2.561180000000000     -3.260870000000000      1.488290000000000
H      -2.472640000000000     -3.108630000000000     -0.302310000000000
H      -0.625950000000000      0.477550000000000     -2.436880000000000
H      -2.198660000000000      0.576910000000000     -3.317960000000000
H      -1.914590000000000      1.606200000000000     -1.865510000000000
C      -3.386270000000000      3.685010000000000      0.446450000000000
C      -1.525130000000000      4.735020000000000     -0.462600000000000
O      -2.042320000000000      3.535010000000000      0.058510000000000
C      -3.863340000000000      2.353700000000000      1.016630000000000
C      -0.084300000000000      4.479230000000000     -0.891000000000000
H      -3.488020000000000      4.457900000000000      1.241120000000000
H      -4.023860000000000      3.933300000000000     -0.431280000000000
H      -2.099070000000000      5.059200000000000     -1.359630000000000
H      -1.520270000000000      5.532930000000000      0.313410000000000
H      -0.056000000000000      3.685160000000000     -1.667760000000000
H       0.366000000000000      5.403890000000000     -1.307910000000000
H       0.520470000000000      4.146390000000000     -0.019450000000000
H      -3.249350000000000      2.072350000000000      1.899590000000000
H      -4.927150000000000      2.421930000000000      1.324610000000000
H      -3.765340000000000      1.557900000000000      0.249720000000000
Mg     -5.916760000000000     -6.792420000000000     -1.128330000000000
H      -4.651010000000000     -4.693750000000000     -3.199440000000000
C      -4.361780000000000     -6.785520000000000     -3.880330000000000
C      -4.482110000000000     -5.714550000000000     -2.807590000000000
C      -5.603310000000000     -6.811170000000000     -4.775850000000000
H      -3.459040000000000     -6.570070000000000     -4.486190000000000
H      -4.242240000000000     -7.775560000000000     -3.387900000000000
H      -6.503070000000000     -7.029360000000000     -4.167740000000000
H      -5.732900000000000     -5.818900000000000     -5.257820000000000
C      -5.478770000000000     -7.879790000000000     -5.857750000000000
H      -3.635580000000000     -5.756370000000000     -2.089270000000000
H      -4.567420000000000     -7.702930000000000     -6.466970000000000
H      -5.421270000000000     -8.890169999999999     -5.399350000000000
H      -6.366000000000000     -7.843920000000000     -6.524750000000000
C      -6.726980000000000     -9.448259999999999     -2.588080000000000
C      -7.857210000000000    -10.154550000000000     -2.962160000000000
C      -8.941450000000000     -9.439750000000000     -2.488510000000000
C      -8.420760000000000     -8.338290000000001     -1.847100000000000
N      -7.080040000000000     -8.349600000000001     -1.907510000000000
C      -9.136720000000000     -7.242050000000000     -1.162120000000000
N      -8.495790000000000     -5.967490000000000     -1.516790000000000
C      -9.132000000000000     -5.137210000000000     -2.538770000000000
H      -7.884410000000000    -11.077660000000000     -3.523190000000000
H      -5.704380000000000     -9.718310000000001     -2.823160000000000
H      -9.988180000000000     -9.699120000000001     -2.596670000000000
H      -8.939460000000000     -7.409490000000000     -0.094660000000000
H     -10.237890000000000     -7.268810000000000     -1.294140000000000
C     -10.317850000000000     -4.379360000000000     -1.915710000000000
C      -8.080710000000000     -4.125230000000000     -3.027290000000000
C      -9.573230000000001     -5.979230000000000     -3.743400000000000
H      -9.972939999999999     -3.723540000000000     -1.084190000000000
H     -10.817520000000000     -3.747640000000000     -2.678690000000000
H     -11.067159999999999     -5.084660000000000     -1.503110000000000
H      -7.209440000000000     -4.647290000000000     -3.472670000000000
H      -8.511310000000000     -3.430700000000000     -3.776780000000000
H      -7.692650000000000     -3.515090000000000     -2.201200000000000
H      -8.707400000000000     -6.553950000000000     -4.128490000000000
H     -10.371779999999999     -6.695180000000000     -3.468410000000000
H      -9.953740000000000     -5.323630000000000     -4.550680000000000
Mg     -8.242100000000001     -5.441320000000000      0.834160000000000
H      -9.719860000000001     -5.353960000000000      3.179050000000000
C     -11.106619999999999     -6.265810000000000      1.729080000000000
C      -9.978700000000000     -5.296180000000000      2.104620000000000
C     -10.823740000000001     -7.698850000000000      2.192740000000000
H     -12.039080000000000     -5.925850000000000      2.226940000000000
H     -11.272220000000001     -6.229760000000000      0.630960000000000
H      -9.894600000000001     -8.085780000000000      1.748640000000000
H     -10.712850000000000     -7.701330000000000      3.297990000000000
C     -11.953020000000000     -8.648550000000000      1.801900000000000
H     -10.325240000000001     -4.266190000000000      1.870880000000000
H     -12.917040000000000     -8.309600000000000      2.236100000000000
H     -12.046900000000001     -8.702230000000000      0.695820000000000
H     -11.728450000000000     -9.666480000000000      2.186080000000000
C      -7.397750000000000     -2.402900000000000      2.934780000000000
C      -7.861370000000000     -2.064990000000000      1.684980000000000
C      -7.170060000000000     -2.835450000000000      0.773720000000000
C      -6.326280000000000     -3.628830000000000      1.437710000000000
N      -6.412910000000000     -3.398250000000000      2.825310000000000
C      -5.465520000000000     -4.699600000000000      0.820400000000000
N      -6.210750000000000     -5.979170000000000      0.776810000000000
C      -5.758010000000000     -7.035050000000000      1.707330000000000
H      -8.639370000000000     -1.344480000000000      1.465950000000000
H      -7.745850000000000     -1.983400000000000      3.866650000000000
H      -7.327130000000000     -2.817540000000000     -0.283470000000000
H      -4.500990000000000     -4.754790000000000      1.359650000000000
H      -5.208360000000000     -4.398920000000000     -0.218540000000000
C      -5.780550000000000     -6.550670000000000      3.165960000000000
C      -6.714000000000000     -8.226739999999999      1.583140000000000
C      -4.341870000000000     -7.527850000000000      1.316040000000000
H      -6.801700000000000     -6.205240000000000      3.434500000000000
H      -5.492760000000000     -7.380280000000000      3.845750000000000
H      -5.064940000000000     -5.721970000000000      3.333700000000000
H      -6.741530000000000     -8.611330000000001      0.546960000000000
H      -6.397750000000000     -9.063129999999999      2.240660000000000
H      -7.730620000000000     -7.917880000000000      1.877450000000000
H      -4.335000000000000     -7.937570000000000      0.282130000000000
H      -3.580720000000000     -6.725070000000000      1.362990000000000
H      -4.011440000000000     -8.337090000000000      2.000230000000000

-C 0
6-31g(d,p)
****
-H 0
6-31g(d,p)
****
-Mg 0
6-31g(d,p)
****
-N 0
6-31+g(d,p)
****
-Na 0
6-31g(d,p)
****
-O 0
6-31+g(d,p)
****


