%chk=lowest10_c1_a1_speciation0_speciationDFT66b_rank06_E164.47.chk
%nprocshared=20
%mem=40GB
#p opt=loose PM7/gen scf=xqc 

lowest10_c1_a1_speciation0_speciationDFT66b_rank06_E164.47 DFT input

0 1
Na      1.400630000000000      1.919670000000000      0.713840000000000
C      -0.120970000000000     -0.896030000000000      1.200910000000000
C       1.008090000000000     -0.912260000000000     -0.811020000000000
O       0.097510000000000     -0.192690000000000     -0.004750000000000
C      -1.105580000000000     -0.121490000000000      2.069590000000000
C       1.252900000000000     -0.145520000000000     -2.105660000000000
H      -0.561760000000000     -1.898880000000000      1.000310000000000
H       0.827420000000000     -0.997290000000000      1.772100000000000
H       1.988950000000000     -1.027190000000000     -0.295610000000000
H       0.592260000000000     -1.909480000000000     -1.081220000000000
H       1.684540000000000      0.854110000000000     -1.886190000000000
H       1.965300000000000     -0.707080000000000     -2.747320000000000
H       0.300620000000000     -0.014660000000000     -2.662180000000000
H      -2.075960000000000     -0.005990000000000      1.541470000000000
H      -1.280810000000000     -0.668660000000000      3.020780000000000
H      -0.700850000000000      0.884830000000000      2.308690000000000
Na     -2.148570000000000     -0.420400000000000     -1.267870000000000
Mg      1.158400000000000     -4.551430000000000      9.789239999999999
C      -1.239340000000000     -4.254470000000000     10.882820000000001
C      -2.188980000000000     -3.215880000000000     12.742810000000000
O      -1.135240000000000     -3.188940000000000     11.807810000000000
C      -2.320210000000000     -4.056010000000000      9.852729999999999
C      -1.732200000000000     -2.554090000000000     14.037750000000001
H       0.255910000000000     -4.821120000000000     12.780670000000001
H      -1.289420000000000     -5.260060000000000     11.350250000000001
H      -3.043480000000000     -2.641780000000000     12.330249999999999
H      -2.512250000000000     -4.249310000000000     12.999420000000001
H      -1.389710000000000     -1.515810000000000     13.842140000000001
H      -2.578410000000000     -2.525760000000000     14.755699999999999
H      -0.898880000000000     -3.125020000000000     14.498600000000000
H      -2.200600000000000     -3.069520000000000      9.374850000000000
H      -2.222680000000000     -4.857370000000000      9.092460000000001
H      -3.310120000000000     -4.120000000000000     10.341490000000000
H       1.195810000000000     -6.993670000000000      8.684290000000001
C       1.478630000000000     -5.898520000000000      6.823490000000000
C       0.837480000000000     -6.059230000000000      8.214079999999999
C       3.000320000000000     -5.708030000000000      6.870760000000000
H       1.246530000000000     -6.808660000000000      6.227710000000000
H       1.010250000000000     -5.045180000000000      6.310520000000000
H       3.244270000000000     -4.808750000000000      7.472980000000000
H       3.465090000000000     -6.601410000000000      7.333110000000000
C       3.608330000000000     -5.540070000000000      5.475400000000000
H      -0.262810000000000     -6.126760000000000      8.077150000000000
H       3.389940000000000     -6.426800000000000      4.843480000000000
H       3.215460000000000     -4.632200000000000      4.973660000000000
H       4.711620000000000     -5.435440000000000      5.560180000000000
C       3.579910000000000     -5.973210000000000     10.537480000000000
C       4.491310000000000     -6.390570000000000     11.471480000000000
C       4.079500000000000     -5.869240000000000     12.673489999999999
C       2.920060000000000     -5.166140000000000     12.426080000000001
N       2.624470000000000     -5.226850000000000     11.097060000000001
C       2.122140000000000     -4.497770000000000     13.508550000000000
N       0.767810000000000     -5.050560000000000     13.641230000000000
C       0.567030000000000     -6.488210000000000     13.955909999999999
H       5.351740000000000     -7.011550000000000     11.286670000000001
H       3.603030000000000     -6.211490000000000      9.491970000000000
H       4.558970000000000     -6.007250000000000     13.632540000000001
H       2.643510000000000     -4.575210000000000     14.485279999999999
H       2.047560000000000     -3.410830000000000     13.310810000000000
C       1.443480000000000     -6.919750000000000     15.143470000000001
C      -0.913850000000000     -6.668470000000000     14.344279999999999
C       0.834830000000000     -7.403640000000000     12.734090000000000
H       1.255210000000000     -6.259160000000000     16.016700000000000
H       1.225530000000000     -7.969780000000000     15.430220000000000
H       2.518860000000000     -6.861210000000000     14.880190000000001
H      -1.576920000000000     -6.373190000000000     13.504120000000000
H      -1.134440000000000     -7.730370000000000     14.588450000000000
H      -1.169390000000000     -6.041490000000000     15.224550000000001
H       0.236740000000000     -7.078600000000000     11.855520000000000
H       1.895890000000000     -7.433390000000000     12.443610000000000
H       0.565700000000000     -8.454400000000000     12.967160000000000
Mg      2.924090000000000     -2.399030000000000      7.476000000000000
H       5.307030000000000     -3.204950000000000      6.682290000000000
C       5.766300000000000     -2.141090000000000      8.518810000000000
C       5.037370000000000     -2.261180000000000      7.199440000000000
C       5.327700000000000     -3.261150000000000      9.458560000000000
H       6.860070000000000     -2.187960000000000      8.335660000000001
H       5.528000000000000     -1.157150000000000      8.969420000000000
H       4.228000000000000     -3.227020000000000      9.578880000000000
H       5.588400000000000     -4.249770000000000      9.024139999999999
C       5.986920000000000     -3.105000000000000     10.824059999999999
H       5.276470000000000     -1.404440000000000      6.534500000000000
H       7.090350000000000     -3.164250000000000     10.724470000000000
H       5.707200000000000     -2.130990000000000     11.279840000000000
H       5.649760000000000     -3.910800000000000     11.501189999999999
C       1.263350000000000      0.061820000000000      5.212010000000000
C       1.630290000000000     -1.136620000000000      4.645790000000000
C       1.209070000000000     -2.136110000000000      5.494790000000000
C       0.626840000000000     -1.567120000000000      6.556380000000000
N       0.607880000000000     -0.166390000000000      6.430160000000000
C       0.193100000000000     -2.289900000000000      7.797710000000000
N       1.289660000000000     -2.272010000000000      8.785890000000000
C       1.399340000000000     -1.165270000000000      9.770880000000000
H       2.182460000000000     -1.263870000000000      3.725230000000000
H       1.467340000000000      1.038830000000000      4.804000000000000
H       1.406640000000000     -3.182870000000000      5.350030000000000
H       0.017170000000000     -3.354350000000000      7.539060000000000
H      -0.778280000000000     -1.920100000000000      8.160920000000001
C       0.051850000000000     -0.475650000000000     10.070860000000000
C       1.915330000000000     -1.752480000000000     11.098200000000000
C       2.412270000000000     -0.130310000000000      9.280519999999999
H      -0.697860000000000     -1.214820000000000     10.415070000000000
H       0.173650000000000      0.280750000000000     10.874900000000000
H      -0.340800000000000      0.043150000000000      9.174180000000000
H       2.862110000000000     -2.306230000000000     10.975140000000000
H       2.093840000000000     -0.953950000000000     11.851030000000000
H       1.172130000000000     -2.455310000000000     11.512090000000001
H       3.402690000000000     -0.600780000000000      9.161450000000000
H       2.110430000000000      0.296470000000000      8.310810000000000
H       2.507580000000000      0.698590000000000     10.012750000000000

-C 0
6-31g(d,p)
****
-H 0
6-31g(d,p)
****
-Mg 0
6-31g(d,p)
****
-N 0
6-31+g(d,p)
****
-Na 0
6-31g(d,p)
****
-O 0
6-31+g(d,p)
****


