%chk=lowest10_c1_a1_speciation7_speciationDFT39_rank06_E208.71.chk
%nprocshared=20
%mem=40GB
#p opt=loose PM7/gen scf=xqc 

lowest10_c1_a1_speciation7_speciationDFT39_rank06_E208.71 DFT input

0 1
Na      0.865090000000000      1.120320000000000     -0.694520000000000
C      -2.304550000000000      1.246040000000000     -0.602640000000000
C      -1.499130000000000      1.353970000000000      1.600680000000000
O      -1.310110000000000      0.813860000000000      0.306260000000000
C      -1.908070000000000      2.558690000000000     -1.275110000000000
C      -2.382010000000000      0.450590000000000      2.460720000000000
H      -2.403870000000000      0.471110000000000     -1.392220000000000
H      -3.306000000000000      1.332040000000000     -0.126300000000000
H      -0.501520000000000      1.431160000000000      2.084380000000000
H      -1.910600000000000      2.386270000000000      1.574160000000000
H      -1.917440000000000     -0.550670000000000      2.582020000000000
H      -2.503660000000000      0.907120000000000      3.465760000000000
H      -3.386380000000000      0.331160000000000      2.005320000000000
H      -0.953450000000000      2.438630000000000     -1.829760000000000
H      -2.700860000000000      2.858380000000000     -1.991950000000000
H      -1.790910000000000      3.366680000000000     -0.525060000000000
C       1.306100000000000      4.129090000000000      0.554550000000000
C       3.272740000000000      3.391830000000000     -0.580210000000000
O       1.983700000000000      3.068320000000000     -0.092650000000000
C       1.010030000000000      5.318970000000000     -0.357760000000000
C       4.259790000000000      3.788200000000000      0.516600000000000
H       0.324940000000000      3.720600000000000      0.875910000000000
H       1.820200000000000      4.437160000000000      1.487760000000000
H       3.669200000000000      2.465040000000000     -1.048510000000000
H       3.230480000000000      4.143450000000000     -1.395470000000000
H       4.282010000000000      3.011230000000000      1.309700000000000
H       5.274680000000000      3.884280000000000      0.077260000000000
H       3.986140000000000      4.767630000000000      0.957900000000000
H       0.477940000000000      4.979880000000000     -1.271580000000000
H       0.365670000000000      6.041680000000000      0.185740000000000
H       1.945030000000000      5.843300000000000     -0.640230000000000
Na     -1.016270000000000     -1.517870000000000      0.515660000000000
C       1.602040000000000     -1.748680000000000     -1.428770000000000
C       2.237930000000000     -1.382530000000000      0.798620000000000
O       1.249840000000000     -1.169020000000000     -0.189360000000000
C       0.361310000000000     -1.804450000000000     -2.315590000000000
C       3.420210000000000     -0.424220000000000      0.654170000000000
H       2.360270000000000     -1.118300000000000     -1.939740000000000
H       1.976590000000000     -2.790770000000000     -1.315710000000000
H       1.763250000000000     -1.182780000000000      1.783520000000000
H       2.576720000000000     -2.440720000000000      0.829320000000000
H       3.073430000000000      0.628540000000000      0.703130000000000
H       4.136270000000000     -0.597590000000000      1.485130000000000
H       3.952550000000000     -0.592370000000000     -0.303880000000000
H      -0.073090000000000     -0.788860000000000     -2.437230000000000
H       0.628210000000000     -2.200110000000000     -3.318280000000000
H      -0.405690000000000     -2.469580000000000     -1.866300000000000
C      -1.469470000000000     -4.782970000000000      0.447090000000000
C      -3.308750000000000     -3.696290000000000     -0.462410000000000
O      -2.011060000000000     -3.544100000000000      0.058520000000000
C      -0.078050000000000     -4.530370000000000      1.017130000000000
C      -3.809120000000000     -2.320610000000000     -0.888930000000000
H      -2.088160000000000     -5.257270000000000      1.241860000000000
H      -1.365610000000000     -5.459490000000000     -0.430470000000000
H      -3.302600000000000     -4.354810000000000     -1.359810000000000
H      -4.000100000000000     -4.092680000000000      0.313110000000000
H      -3.136040000000000     -1.898250000000000     -1.665800000000000
H      -4.835150000000000     -2.393250000000000     -1.305490000000000
H      -3.823410000000000     -1.631130000000000     -0.016860000000000
H      -0.141280000000000     -3.857950000000000      1.900080000000000
H       0.395010000000000     -5.485690000000000      1.324920000000000
H       0.561930000000000     -4.047500000000000      0.250090000000000
Mg     -8.468370000000000     -2.295770000000000      4.193340000000000
H      -8.409120000000000     -3.115860000000000      1.564800000000000
C      -6.639040000000000     -3.998870000000000      2.524380000000000
C      -7.617050000000000     -2.855200000000000      2.293430000000000
C      -7.391350000000000     -5.248910000000000      2.958940000000000
H      -6.073400000000000     -4.215130000000000      1.596940000000000
H      -5.918190000000000     -3.695510000000000      3.311540000000000
H      -8.072720000000000     -4.989630000000000      3.774760000000000
H      -8.013560000000000     -5.617410000000000      2.117730000000000
C      -6.436670000000000     -6.338760000000000      3.437440000000000
H      -7.060160000000000     -1.964410000000000      1.928100000000000
H      -5.729340000000000     -6.615610000000000      2.628990000000000
H      -5.860350000000000     -5.985770000000000      4.321450000000000
H      -7.017390000000000     -7.235830000000000      3.737940000000000
C      -4.582520000000000     -2.959100000000000      7.913850000000000
C      -5.470030000000000     -3.889960000000000      7.408820000000000
C      -6.021690000000000     -3.328450000000000      6.272210000000000
C      -5.480400000000000     -2.127740000000000      6.141400000000000
N      -4.558900000000000     -1.905370000000000      7.175670000000000
C      -5.804290000000000     -1.123150000000000      5.067510000000000
N      -7.104500000000000     -0.483820000000000      5.347240000000000
C      -7.063530000000000      0.954440000000000      5.684830000000000
H      -5.698330000000000     -4.862280000000000      7.833840000000000
H      -3.984100000000000     -3.069210000000000      8.804309999999999
H      -6.744910000000000     -3.764720000000000      5.613750000000000
H      -5.833650000000000     -1.616180000000000      4.080810000000000
H      -4.976420000000000     -0.400670000000000      4.986600000000000
C      -6.725330000000000      1.754650000000000      4.416720000000000
C      -8.447450000000000      1.404060000000000      6.198860000000000
C      -6.073380000000000      1.240100000000000      6.832560000000000
H      -7.475650000000000      1.546620000000000      3.622930000000000
H      -6.729050000000000      2.842530000000000      4.627190000000000
H      -5.732050000000000      1.473910000000000      4.014850000000000
H      -8.736020000000000      0.818220000000000      7.093490000000000
H      -8.439600000000000      2.478030000000000      6.477970000000000
H      -9.241470000000000      1.304540000000000      5.448890000000000
H      -6.360860000000000      0.652190000000000      7.730010000000000
H      -5.027630000000000      0.992300000000000      6.581880000000000
H      -6.098250000000000      2.318410000000000      7.092770000000000
Mg     -8.279830000000000     -1.699790000000000      7.166140000000000
H      -8.097189999999999     -2.413390000000000      9.795859999999999
C      -8.394670000000000     -0.247270000000000      9.973879999999999
C      -7.836900000000000     -1.481320000000000      9.258440000000000
C      -9.899060000000000     -0.335920000000000     10.247000000000000
H      -7.889000000000000     -0.202150000000000     10.960690000000000
H      -8.142150000000001      0.687280000000000      9.425490000000000
H     -10.115589999999999     -1.303320000000000     10.749570000000000
H     -10.184229999999999      0.486910000000000     10.935910000000000
C     -10.750819999999999     -0.201220000000000      8.994820000000001
H      -6.728940000000000     -1.387640000000000      9.245790000000000
H     -10.603910000000001      0.795940000000000      8.529980000000000
H     -10.483200000000000     -0.987810000000000      8.275280000000000
H     -11.823169999999999     -0.309540000000000      9.261720000000000
C     -11.755150000000000     -1.351930000000000      2.057850000000000
C     -10.774330000000001     -0.390410000000000      2.037620000000000
C     -10.284100000000000     -0.278200000000000      3.323080000000000
C     -10.941160000000000     -1.144850000000000      4.107310000000000
N     -11.900069999999999     -1.853040000000000      3.357830000000000
C     -10.735840000000000     -1.370390000000000      5.587430000000000
N      -9.737370000000000     -2.428750000000000      5.856670000000000
C     -10.268240000000000     -3.756940000000000      6.285940000000000
H     -10.448449999999999      0.165690000000000      1.168320000000000
H     -12.332350000000000     -1.683330000000000      1.208760000000000
H      -9.494890000000000      0.393310000000000      3.597980000000000
H     -11.719130000000000     -1.546710000000000      6.048500000000000
H     -10.392139999999999     -0.435670000000000      6.050710000000000
C     -11.114850000000001     -4.377770000000000      5.164220000000000
C      -9.121540000000000     -4.728760000000000      6.626260000000000
C     -11.090410000000000     -3.642000000000000      7.592030000000000
H     -10.504049999999999     -4.494520000000000      4.241470000000000
H     -11.496549999999999     -5.374290000000000      5.466540000000000
H     -11.993969999999999     -3.747710000000000      4.939610000000000
H      -8.476220000000000     -4.330070000000000      7.436890000000000
H      -9.529640000000001     -5.707080000000000      6.963570000000000
H      -8.500170000000001     -4.960510000000000      5.765740000000000
H     -10.451520000000000     -3.247450000000000      8.411020000000001
H     -11.989190000000001     -3.007730000000000      7.506490000000000
H     -11.453500000000000     -4.643730000000000      7.903570000000000

-C 0
6-31g(d,p)
****
-H 0
6-31g(d,p)
****
-Mg 0
6-31g(d,p)
****
-N 0
6-31+g(d,p)
****
-Na 0
6-31g(d,p)
****
-O 0
6-31+g(d,p)
****


