%chk=lowest10_c1_a1_speciation7_speciationDFT66b_rank10_E208.74.chk
%nprocshared=20
%mem=40GB
#p opt=loose PM7/gen scf=xqc 

lowest10_c1_a1_speciation7_speciationDFT66b_rank10_E208.74 DFT input

0 1
Na      0.544820000000000     -0.685310000000000     -1.302620000000000
C      -2.259370000000000      0.798190000000000     -1.217270000000000
C      -0.573460000000000      2.383300000000000     -0.818200000000000
O      -0.995980000000000      1.045780000000000     -0.630540000000000
C      -2.118180000000000      0.372630000000000     -2.677070000000000
C      -1.046760000000000      3.283890000000000      0.321330000000000
H      -2.735870000000000     -0.036060000000000     -0.659820000000000
H      -2.948580000000000      1.666160000000000     -1.122980000000000
H       0.537750000000000      2.389490000000000     -0.829890000000000
H      -0.895770000000000      2.797290000000000     -1.798230000000000
H      -0.634520000000000      2.937270000000000      1.292370000000000
H      -0.694090000000000      4.320860000000000      0.138270000000000
H      -2.154340000000000      3.294330000000000      0.381070000000000
H      -1.506560000000000     -0.551010000000000     -2.755080000000000
H      -3.124410000000000      0.170250000000000     -3.099730000000000
H      -1.641120000000000      1.173600000000000     -3.277110000000000
C       1.658040000000000      0.957650000000000     -3.923280000000000
C       2.893700000000000     -1.061250000000000     -3.608250000000000
O       1.926590000000000     -0.161300000000000     -3.099000000000000
C       1.064910000000000      0.593430000000000     -5.283970000000000
C       4.280260000000000     -0.440830000000000     -3.773740000000000
H       0.890800000000000      1.558600000000000     -3.391070000000000
H       2.542200000000000      1.620460000000000     -4.018000000000000
H       2.993200000000000     -1.870300000000000     -2.852620000000000
H       2.546060000000000     -1.560620000000000     -4.536230000000000
H       4.598370000000000      0.041950000000000     -2.825670000000000
H       5.008720000000000     -1.236990000000000     -4.034920000000000
H       4.281960000000000      0.305050000000000     -4.593950000000000
H       0.170700000000000     -0.052040000000000     -5.153650000000000
H       0.762340000000000      1.523920000000000     -5.809050000000000
H       1.813680000000000      0.075040000000000     -5.915980000000000
Na     -0.776730000000000      0.518570000000000      1.659360000000000
C       0.723490000000000     -2.356510000000000      1.244380000000000
C       2.281460000000000     -0.611360000000000      1.410320000000000
O       0.977050000000000     -0.985600000000000      1.014520000000000
C      -0.779860000000000     -2.601270000000000      1.148620000000000
C       3.337060000000000     -1.008210000000000      0.378540000000000
H       1.220690000000000     -2.969900000000000      0.463390000000000
H       1.048920000000000     -2.681420000000000      2.258050000000000
H       2.292810000000000      0.496950000000000      1.492070000000000
H       2.538500000000000     -0.997170000000000      2.420580000000000
H       3.108360000000000     -0.551000000000000     -0.605930000000000
H       4.332400000000000     -0.645820000000000      0.712620000000000
H       3.385840000000000     -2.109680000000000      0.268180000000000
H      -1.164450000000000     -2.264760000000000      0.161830000000000
H      -0.996980000000000     -3.684090000000000      1.265010000000000
H      -1.313860000000000     -2.046290000000000      1.948250000000000
C      -1.403640000000000     -0.161420000000000      4.824330000000000
C      -3.389270000000000      0.119620000000000      3.653280000000000
O      -1.987390000000000      0.047040000000000      3.561430000000000
C       0.109510000000000     -0.206930000000000      4.641900000000000
C      -3.943500000000000      0.308550000000000      2.245370000000000
H      -1.643310000000000      0.675920000000000      5.517590000000000
H      -1.729460000000000     -1.135610000000000      5.252530000000000
H      -3.810320000000000     -0.824720000000000      4.065680000000000
H      -3.699980000000000      0.993240000000000      4.269010000000000
H      -3.649410000000000     -0.550390000000000      1.604720000000000
H      -5.051060000000000      0.373650000000000      2.270340000000000
H      -3.538710000000000      1.241980000000000      1.797060000000000
H       0.473890000000000      0.753290000000000      4.216500000000000
H       0.612900000000000     -0.383950000000000      5.614750000000000
H       0.381180000000000     -1.027500000000000      3.946260000000000
Mg     11.359209999999999     -3.334380000000000     -3.503940000000000
C      10.523030000000000     -1.993570000000000     -5.627610000000000
C       9.653900000000000     -2.443850000000000     -7.744500000000000
O       9.782299999999999     -2.903110000000000     -6.418720000000000
C       9.754020000000001     -0.754040000000000     -5.253930000000000
C       9.481479999999999     -3.636500000000000     -8.677949999999999
H      11.954760000000000     -3.791540000000000     -6.554140000000000
H      11.528750000000000     -1.752960000000000     -6.031120000000000
H       8.750550000000000     -1.804100000000000     -7.811360000000000
H      10.547250000000000     -1.880220000000000     -8.094590000000000
H       8.603710000000000     -4.244160000000000     -8.371660000000000
H       9.324719999999999     -3.273170000000000     -9.715140000000000
H      10.385429999999999     -4.281030000000000     -8.664000000000000
H       8.788060000000000     -1.038570000000000     -4.803830000000000
H      10.358290000000000     -0.182710000000000     -4.520460000000000
H       9.584230000000000     -0.141460000000000     -6.158870000000000
H      13.370430000000001     -1.911090000000000     -2.453780000000000
C      12.066010000000000     -1.769700000000000     -0.715990000000000
C      12.292759999999999     -1.790410000000000     -2.238680000000000
C      12.412879999999999     -3.096430000000000     -0.027410000000000
H      12.695840000000000     -0.961930000000000     -0.282370000000000
H      11.016940000000000     -1.506500000000000     -0.516670000000000
H      11.800160000000000     -3.912880000000000     -0.462070000000000
H      13.487819999999999     -3.316450000000000     -0.182160000000000
C      12.162739999999999     -3.050900000000000      1.482840000000000
H      11.952790000000000     -0.815070000000000     -2.647500000000000
H      12.764270000000000     -2.246270000000000      1.956080000000000
H      11.089919999999999     -2.880010000000000      1.706540000000000
H      12.457670000000000     -4.020790000000000      1.938680000000000
C      13.642760000000001     -5.043020000000000     -2.949020000000000
C      14.534290000000000     -6.015710000000000     -3.314900000000000
C      14.179309999999999     -6.414360000000000     -4.580640000000000
C      13.088900000000001     -5.650510000000000     -4.942840000000000
N      12.756220000000001     -4.814330000000000     -3.925200000000000
C      12.442760000000000     -5.743760000000000     -6.297570000000000
N      12.523520000000000     -4.486210000000000     -7.052060000000000
C      13.841550000000000     -3.885860000000000     -7.380790000000000
H      15.354720000000000     -6.381290000000000     -2.718810000000000
H      13.641030000000001     -4.513050000000000     -2.018350000000000
H      14.675530000000000     -7.160630000000000     -5.182970000000000
H      12.900230000000001     -6.557220000000000     -6.897040000000000
H      11.378550000000001     -6.030390000000000     -6.192390000000000
C      14.789170000000000     -4.936050000000000     -7.983110000000000
C      13.592540000000000     -2.784770000000000     -8.430500000000000
C      14.505369999999999     -3.208200000000000     -6.154750000000000
H      14.308750000000000     -5.426760000000000     -8.856460000000000
H      15.739789999999999     -4.464960000000000     -8.309500000000000
H      15.040550000000000     -5.713600000000000     -7.233840000000000
H      12.915889999999999     -2.003730000000000     -8.024419999999999
H      14.544029999999999     -2.287290000000000     -8.718640000000001
H      13.123350000000000     -3.209590000000000     -9.343000000000000
H      13.815920000000000     -2.474450000000000     -5.684170000000000
H      14.826800000000000     -3.928310000000000     -5.387280000000000
H      15.428440000000000     -2.672190000000000     -6.457160000000000
Mg      9.483120000000000     -4.619740000000000     -0.690210000000000
H      10.854310000000000     -5.873540000000000      1.177560000000000
C      10.433650000000000     -7.467660000000000     -0.237200000000000
C      10.011419999999999     -6.259340000000000      0.568120000000000
C      11.515210000000000     -7.073130000000000     -1.239810000000000
H      10.806290000000001     -8.252290000000000      0.453700000000000
H       9.549400000000000     -7.864290000000000     -0.774600000000000
H      11.138920000000001     -6.251030000000000     -1.877990000000000
H      12.414700000000000     -6.699630000000000     -0.705660000000000
C      11.890890000000001     -8.259819999999999     -2.120120000000000
H       9.162830000000000     -6.506270000000000      1.240600000000000
H      12.295980000000000     -9.084289999999999     -1.497910000000000
H      11.003510000000000     -8.621259999999999     -2.682790000000000
H      12.662310000000000     -7.958540000000000     -2.852060000000000
C       6.208270000000000     -3.279400000000000      0.367210000000000
C       7.284080000000000     -2.842320000000000      1.112440000000000
C       8.256610000000000     -2.463210000000000      0.215800000000000
C       7.761410000000000     -2.694720000000000     -0.997470000000000
N       6.461470000000000     -3.201510000000000     -0.891420000000000
C       8.527200000000001     -2.596760000000000     -2.289220000000000
N       9.098070000000000     -3.915120000000000     -2.627870000000000
C       8.338300000000000     -4.873120000000000     -3.471210000000000
H       7.382590000000000     -2.866470000000000      2.191490000000000
H       5.282070000000000     -3.662730000000000      0.756440000000000
H       9.245189999999999     -2.134210000000000      0.470290000000000
H       9.387010000000000     -1.914620000000000     -2.129040000000000
H       7.928830000000000     -2.119010000000000     -3.080790000000000
C       7.318690000000000     -4.189770000000000     -4.405910000000000
C       9.339370000000001     -5.629960000000000     -4.365600000000000
C       7.625160000000000     -5.891960000000000     -2.583380000000000
H       7.819110000000000     -3.436640000000000     -5.045780000000000
H       6.843090000000000     -4.938350000000000     -5.074260000000000
H       6.515500000000000     -3.692920000000000     -3.826690000000000
H      10.141679999999999     -6.117720000000000     -3.785610000000000
H       8.832250000000000     -6.421820000000000     -4.959060000000000
H       9.819830000000000     -4.929040000000000     -5.069220000000000
H       8.364390000000000     -6.453300000000000     -1.987310000000000
H       6.923930000000000     -5.395600000000000     -1.893750000000000
H       7.055570000000000     -6.616420000000000     -3.202040000000000

-C 0
6-31g(d,p)
****
-H 0
6-31g(d,p)
****
-Mg 0
6-31g(d,p)
****
-N 0
6-31+g(d,p)
****
-Na 0
6-31g(d,p)
****
-O 0
6-31+g(d,p)
****


