%chk=lowest10_c1_a1_speciation7_speciationDFT66b_rank01_E208.00.chk
%nprocshared=20
%mem=40GB
#p opt=loose PM7/gen scf=xqc 

lowest10_c1_a1_speciation7_speciationDFT66b_rank01_E208.00 DFT input

0 1
Na     -0.480280000000000     -1.212370000000000     -0.853430000000000
C      -2.501880000000000      0.905750000000000      0.373180000000000
C      -1.114600000000000      2.019700000000000     -1.158970000000000
O      -1.206360000000000      0.994010000000000     -0.188370000000000
C      -3.397530000000000     -0.020540000000000     -0.446140000000000
C      -0.705430000000000      3.349500000000000     -0.528600000000000
H      -2.402350000000000      0.476040000000000      1.392590000000000
H      -2.977370000000000      1.902930000000000      0.503370000000000
H      -0.332420000000000      1.724680000000000     -1.891140000000000
H      -2.054120000000000      2.139800000000000     -1.741010000000000
H       0.287030000000000      3.261910000000000     -0.038430000000000
H      -0.640740000000000      4.125020000000000     -1.320750000000000
H      -1.453160000000000      3.675530000000000      0.223110000000000
H      -2.961340000000000     -1.040740000000000     -0.492580000000000
H      -4.397620000000000     -0.081840000000000      0.031450000000000
H      -3.524950000000000      0.365210000000000     -1.477730000000000
C      -1.615770000000000     -0.932040000000000     -3.931380000000000
C      -0.399080000000000     -2.968070000000000     -3.662500000000000
O      -0.783200000000000     -1.724550000000000     -3.105370000000000
C      -2.968860000000000     -1.572830000000000     -4.238600000000000
C       0.435870000000000     -2.836140000000000     -4.935250000000000
H      -1.824490000000000     -0.002310000000000     -3.361470000000000
H      -1.090830000000000     -0.605030000000000     -4.852050000000000
H       0.247410000000000     -3.461610000000000     -2.904970000000000
H      -1.266910000000000     -3.645680000000000     -3.800840000000000
H       1.298470000000000     -2.159730000000000     -4.757630000000000
H       0.816520000000000     -3.837030000000000     -5.227800000000000
H      -0.179340000000000     -2.448540000000000     -5.772050000000000
H      -3.476640000000000     -1.868880000000000     -3.296440000000000
H      -3.605630000000000     -0.837580000000000     -4.774170000000000
H      -2.847890000000000     -2.458350000000000     -4.894460000000000
Na      0.586000000000000      1.256240000000000      1.326340000000000
C       1.530900000000000     -1.878450000000000      1.341810000000000
C       2.655840000000000     -0.666920000000000     -0.320710000000000
O       1.471870000000000     -0.791790000000000      0.441030000000000
C       0.407200000000000     -1.730180000000000      2.363510000000000
C       2.706700000000000     -1.661490000000000     -1.479980000000000
H       1.373380000000000     -2.832430000000000      0.795410000000000
H       2.490720000000000     -1.907640000000000      1.904900000000000
H       2.656520000000000      0.355450000000000     -0.756630000000000
H       3.568860000000000     -0.733680000000000      0.310040000000000
H       1.825280000000000     -1.530870000000000     -2.140920000000000
H       3.623510000000000     -1.478550000000000     -2.078400000000000
H       2.736070000000000     -2.705160000000000     -1.106440000000000
H      -0.576490000000000     -1.667360000000000      1.850170000000000
H       0.397200000000000     -2.605180000000000      3.047080000000000
H       0.553540000000000     -0.810780000000000      2.968370000000000
C       2.392170000000000      1.903020000000000      4.009980000000000
C       0.142990000000000      2.280800000000000      4.445750000000000
O       1.080820000000000      1.809270000000000      3.509130000000000
C       3.345230000000000      1.395140000000000      2.933590000000000
C      -1.247960000000000      2.111870000000000      3.844610000000000
H       2.657800000000000      2.960150000000000      4.236240000000000
H       2.515960000000000      1.262010000000000      4.911280000000000
H       0.186570000000000      1.686480000000000      5.385990000000000
H       0.302220000000000      3.362570000000000      4.653890000000000
H      -1.437380000000000      1.039160000000000      3.625330000000000
H      -2.022250000000000      2.474840000000000      4.551940000000000
H      -1.327770000000000      2.688500000000000      2.897380000000000
H       3.251100000000000      2.014330000000000      2.015130000000000
H       4.394480000000000      1.438930000000000      3.291860000000000
H       3.100180000000000      0.343620000000000      2.678090000000000
Mg      9.053250000000000     -6.117000000000000      2.056080000000000
C       8.829499999999999     -7.488370000000000      4.313630000000000
C       7.148130000000000     -8.165319999999999      5.781460000000000
O       7.462500000000000     -7.826540000000000      4.450430000000000
C       9.752730000000000     -8.677610000000000      4.357670000000000
C       5.675080000000000     -7.873090000000000      6.042570000000000
H       7.409750000000000     -5.481190000000000      4.649950000000000
H       9.167000000000000     -6.674320000000000      4.988600000000000
H       7.327610000000000     -9.250590000000001      5.922590000000000
H       7.734770000000000     -7.581830000000000      6.525580000000000
H       5.036810000000000     -8.426340000000000      5.321390000000000
H       5.413410000000000     -8.190650000000000      7.073590000000000
H       5.466280000000000     -6.786940000000000      5.945370000000000
H       9.413840000000000     -9.437320000000000      3.633930000000000
H      10.772300000000000     -8.332020000000000      4.091760000000000
H       9.754479999999999     -9.103970000000000      5.378010000000000
H      11.391730000000001     -4.813560000000000      2.184100000000000
C      11.900980000000001     -6.019470000000000      0.443880000000000
C      11.227270000000001     -5.843540000000000      1.817170000000000
C      11.279480000000000     -5.150480000000000     -0.657330000000000
H      12.976330000000001     -5.755360000000000      0.549150000000000
H      11.852959999999999     -7.080240000000000      0.155560000000000
H      10.202940000000000     -5.397120000000000     -0.762880000000000
H      11.390290000000000     -4.082250000000000     -0.384370000000000
C      11.961630000000000     -5.354880000000000     -2.013020000000000
H      11.703099999999999     -6.555660000000000      2.524610000000000
H      13.043139999999999     -5.111000000000000     -1.948360000000000
H      11.846640000000001     -6.400130000000000     -2.365970000000000
H      11.497479999999999     -4.684400000000000     -2.768270000000000
C       8.706480000000001     -3.327260000000000      1.321260000000000
C       8.043590000000000     -2.131290000000000      1.410920000000000
C       6.991360000000000     -2.336320000000000      2.269480000000000
C       7.064910000000000     -3.648800000000000      2.683550000000000
N       8.125500000000001     -4.258350000000000      2.080730000000000
C       6.120660000000000     -4.244720000000000      3.687060000000000
N       6.799210000000000     -4.696710000000000      4.908920000000000
C       7.568970000000000     -3.738860000000000      5.743280000000000
H       8.311170000000001     -1.217280000000000      0.908260000000000
H       9.585500000000000     -3.511920000000000      0.734380000000000
H       6.262260000000000     -1.600740000000000      2.580740000000000
H       5.327430000000000     -3.517590000000000      3.959460000000000
H       5.580270000000000     -5.101490000000000      3.239840000000000
C       6.748650000000000     -2.468300000000000      6.021370000000000
C       7.866720000000000     -4.437900000000000      7.084660000000000
C       8.933080000000000     -3.365700000000000      5.108780000000000
H       5.768610000000000     -2.737500000000000      6.470140000000000
H       7.292540000000000     -1.795070000000000      6.716500000000000
H       6.566330000000000     -1.905020000000000      5.083960000000000
H       8.466659999999999     -5.357780000000000      6.921340000000000
H       8.449240000000000     -3.773070000000000      7.758920000000000
H       6.924250000000000     -4.725100000000000      7.597020000000000
H       9.520949999999999     -4.277110000000000      4.865840000000000
H       8.831009999999999     -2.761070000000000      4.194950000000000
H       9.530849999999999     -2.743440000000000      5.806170000000000
Mg      8.741870000000000     -7.243400000000000     -1.370560000000000
H       9.090159999999999     -5.430880000000000     -3.254250000000000
C       6.977410000000000     -5.222690000000000     -2.796060000000000
C       8.201040000000001     -6.068130000000000     -3.069210000000000
C       7.176720000000000     -4.418620000000000     -1.513810000000000
H       6.801750000000000     -4.547780000000000     -3.659610000000000
H       6.099560000000000     -5.890370000000000     -2.688640000000000
H       7.406430000000000     -5.110350000000000     -0.681030000000000
H       8.039510000000000     -3.727820000000000     -1.625440000000000
C       5.919030000000000     -3.626210000000000     -1.176470000000000
H       8.040240000000001     -6.727100000000000     -3.948570000000000
H       5.693050000000000     -2.909010000000000     -1.991580000000000
H       5.055560000000000     -4.310840000000000     -1.033790000000000
H       6.066930000000000     -3.059960000000000     -0.238940000000000
C       9.244820000000001    -10.771860000000000     -2.474370000000000
C      10.305790000000000     -9.918460000000000     -2.670120000000000
C      10.484790000000000     -9.214410000000001     -1.499270000000000
C       9.551240000000000     -9.608420000000001     -0.625490000000000
N       8.739430000000000    -10.616320000000000     -1.175980000000000
C       9.282260000000001     -8.967460000000001      0.704170000000000
N       8.243720000000000     -7.930040000000000      0.548600000000000
C       6.806520000000000     -8.272360000000001      0.704410000000000
H      10.866370000000000     -9.798600000000000     -3.587350000000000
H       8.836390000000000    -11.446740000000000     -3.209460000000000
H      11.202529999999999     -8.425269999999999     -1.365520000000000
H      10.204340000000000     -8.446240000000000      1.034340000000000
H       9.086320000000001     -9.721310000000001      1.482430000000000
C       6.563680000000000     -9.508150000000001      1.596120000000000
C       6.098700000000000     -7.080450000000000      1.376020000000000
C       6.171820000000000     -8.492730000000000     -0.668960000000000
H       7.029420000000000     -9.369980000000000      2.591550000000000
H       5.475500000000000     -9.666359999999999      1.751810000000000
H       6.976290000000000    -10.425010000000000      1.130840000000000
H       6.253170000000000     -6.134560000000000      0.828720000000000
H       5.001750000000000     -7.248310000000000      1.444580000000000
H       6.489570000000000     -6.939080000000000      2.398150000000000
H       6.255710000000000     -7.574210000000000     -1.273660000000000
H       6.667220000000000     -9.313400000000000     -1.211590000000000
H       5.095300000000000     -8.742720000000000     -0.564810000000000

-C 0
6-31g(d,p)
****
-H 0
6-31g(d,p)
****
-Mg 0
6-31g(d,p)
****
-N 0
6-31+g(d,p)
****
-Na 0
6-31g(d,p)
****
-O 0
6-31+g(d,p)
****


