%chk=lowest10_c1_a1_speciation7_speciationDFT39_rank07_E208.71.chk
%nprocshared=20
%mem=40GB
#p opt=loose PM7/gen scf=xqc 

lowest10_c1_a1_speciation7_speciationDFT39_rank07_E208.71 DFT input

0 1
Na      0.865070000000000      1.120320000000000     -0.694520000000000
C      -2.304790000000000      1.246070000000000     -0.602730000000000
C      -1.499300000000000      1.354000000000000      1.600420000000000
O      -1.310250000000000      0.813930000000000      0.306030000000000
C      -1.908260000000000      2.558710000000000     -1.275160000000000
C      -2.382390000000000      0.450660000000000      2.460110000000000
H      -2.404120000000000      0.471140000000000     -1.392300000000000
H      -3.306240000000000      1.332040000000000     -0.126310000000000
H      -0.501730000000000      1.431040000000000      2.084240000000000
H      -1.910690000000000      2.386330000000000      1.573970000000000
H      -1.917800000000000     -0.550590000000000      2.581460000000000
H      -2.503900000000000      0.907220000000000      3.465090000000000
H      -3.386780000000000      0.331390000000000      2.004600000000000
H      -0.953610000000000      2.438600000000000     -1.829770000000000
H      -2.701020000000000      2.858430000000000     -1.992000000000000
H      -1.791030000000000      3.366670000000000     -0.525090000000000
C       1.306100000000000      4.129090000000000      0.554540000000000
C       3.272740000000000      3.391830000000000     -0.580210000000000
O       1.983700000000000      3.068320000000000     -0.092650000000000
C       1.010030000000000      5.318970000000000     -0.357760000000000
C       4.259790000000000      3.788200000000000      0.516600000000000
H       0.324940000000000      3.720600000000000      0.875910000000000
H       1.820200000000000      4.437160000000000      1.487760000000000
H       3.669200000000000      2.465040000000000     -1.048510000000000
H       3.230480000000000      4.143450000000000     -1.395470000000000
H       4.282010000000000      3.011230000000000      1.309700000000000
H       5.274680000000000      3.884280000000000      0.077260000000000
H       3.986140000000000      4.767630000000000      0.957900000000000
H       0.477940000000000      4.979880000000000     -1.271590000000000
H       0.365660000000000      6.041680000000000      0.185730000000000
H       1.945020000000000      5.843300000000000     -0.640230000000000
Na     -1.016230000000000     -1.517760000000000      0.515660000000000
C       1.602050000000000     -1.748670000000000     -1.428780000000000
C       2.237940000000000     -1.382520000000000      0.798610000000000
O       1.249850000000000     -1.169010000000000     -0.189370000000000
C       0.361310000000000     -1.804440000000000     -2.315600000000000
C       3.420220000000000     -0.424220000000000      0.654160000000000
H       2.360270000000000     -1.118290000000000     -1.939750000000000
H       1.976600000000000     -2.790760000000000     -1.315720000000000
H       1.763260000000000     -1.182770000000000      1.783510000000000
H       2.576730000000000     -2.440710000000000      0.829310000000000
H       3.073430000000000      0.628540000000000      0.703130000000000
H       4.136280000000000     -0.597580000000000      1.485130000000000
H       3.952550000000000     -0.592360000000000     -0.303890000000000
H      -0.073090000000000     -0.788850000000000     -2.437230000000000
H       0.628210000000000     -2.200100000000000     -3.318290000000000
H      -0.405690000000000     -2.469570000000000     -1.866310000000000
C      -1.469360000000000     -4.782730000000000      0.446740000000000
C      -3.308970000000000     -3.695950000000000     -0.462550000000000
O      -2.011170000000000     -3.543840000000000      0.058360000000000
C      -0.077940000000000     -4.530200000000000      1.016920000000000
C      -3.809320000000000     -2.320230000000000     -0.889010000000000
H      -2.087900000000000     -5.257150000000000      1.241480000000000
H      -1.365470000000000     -5.459230000000000     -0.430840000000000
H      -3.302750000000000     -4.354440000000000     -1.360010000000000
H      -4.000820000000000     -4.092080000000000      0.312950000000000
H      -3.136230000000000     -1.897860000000000     -1.665860000000000
H      -4.835380000000000     -2.392910000000000     -1.305490000000000
H      -3.823710000000000     -1.630800000000000     -0.016880000000000
H      -0.141190000000000     -3.857860000000000      1.899930000000000
H       0.395060000000000     -5.485570000000000      1.324740000000000
H       0.562130000000000     -4.047350000000000      0.249970000000000
Mg    -10.861079999999999     -1.294200000000000      4.897970000000000
H     -13.478550000000000     -0.897620000000000      4.136850000000000
C     -12.587090000000000     -2.209990000000000      2.614030000000000
C     -12.536590000000000     -1.024800000000000      3.568730000000000
C     -12.940450000000000     -3.478940000000000      3.377400000000000
H     -13.341070000000000     -2.035340000000000      1.820160000000000
H     -11.593050000000000     -2.319970000000000      2.133360000000000
H     -12.292210000000001     -3.559200000000000      4.255160000000000
H     -13.984159999999999     -3.410050000000000      3.746830000000000
C     -12.758889999999999     -4.722110000000000      2.511560000000000
H     -12.327370000000000     -0.097310000000000      2.991730000000000
H     -13.402100000000001     -4.662500000000000      1.609800000000000
H     -11.696370000000000     -4.820610000000000      2.196030000000000
H     -13.032220000000001     -5.625370000000000      3.096020000000000
C      -6.954270000000000     -3.727650000000000      2.034170000000000
C      -8.016769999999999     -4.294570000000000      2.711380000000000
C      -8.895410000000000     -3.265250000000000      2.993230000000000
C      -8.352840000000000     -2.160080000000000      2.507510000000000
N      -7.130440000000000     -2.461410000000000      1.888150000000000
C      -8.928890000000001     -0.772850000000000      2.610850000000000
N      -8.734450000000001     -0.243370000000000      3.974290000000000
C      -7.809120000000000      0.901920000000000      4.102010000000000
H      -8.127230000000001     -5.339990000000000      2.981560000000000
H      -6.082300000000000     -4.247830000000000      1.672660000000000
H      -9.835570000000001     -3.330450000000000      3.502110000000000
H     -10.004450000000000     -0.787690000000000      2.364550000000000
H      -8.479200000000001     -0.136010000000000      1.832540000000000
C      -8.476950000000000      2.151220000000000      3.505260000000000
C      -7.515900000000000      1.164200000000000      5.594020000000000
C      -6.443550000000000      0.604640000000000      3.447960000000000
H      -9.442180000000000      2.351050000000000      4.019980000000000
H      -7.824950000000000      3.039160000000000      3.624410000000000
H      -8.698520000000000      2.015190000000000      2.428740000000000
H      -7.067300000000000      0.266560000000000      6.062680000000000
H      -6.807540000000000      2.009160000000000      5.718570000000000
H      -8.407600000000000      1.445290000000000      6.167570000000000
H      -5.992400000000000     -0.296050000000000      3.915670000000000
H      -6.506410000000000      0.429410000000000      2.360170000000000
H      -5.757190000000000      1.463200000000000      3.599180000000000
Mg     -7.981580000000000     -2.056630000000000      5.493800000000000
H      -5.967200000000000     -3.846990000000000      5.932280000000000
C      -4.949530000000000     -1.958320000000000      6.389920000000000
C      -5.963900000000000     -2.790990000000000      5.600300000000000
C      -5.127740000000000     -2.069230000000000      7.907150000000000
H      -3.948950000000000     -2.374320000000000      6.150490000000000
H      -4.956570000000000     -0.894870000000000      6.062950000000000
H      -5.165580000000000     -3.144500000000000      8.185930000000001
H      -4.246220000000000     -1.610900000000000      8.402930000000000
C      -6.366850000000000     -1.356610000000000      8.425360000000000
H      -5.657300000000000     -2.765490000000000      4.531690000000000
H      -6.301030000000000     -0.266860000000000      8.225239999999999
H      -7.263730000000000     -1.768140000000000      7.941270000000000
H      -6.450680000000000     -1.507540000000000      9.522240000000000
C     -13.123989999999999      0.670290000000000      7.595560000000000
C     -12.479910000000000      1.487100000000000      6.698400000000000
C     -11.195480000000000      1.002990000000000      6.552500000000000
C     -11.055930000000000     -0.078120000000000      7.333240000000000
N     -12.251420000000000     -0.335020000000000      8.031510000000001
C      -9.820390000000000     -0.933770000000000      7.491740000000000
N      -9.795809999999999     -2.060360000000000      6.532680000000000
C     -10.132020000000001     -3.410140000000000      7.075950000000000
H     -12.910489999999999      2.344860000000000      6.198400000000000
H     -14.147150000000000      0.773330000000000      7.921890000000000
H     -10.469189999999999      1.442210000000000      5.897540000000000
H      -9.743230000000001     -1.234940000000000      8.547140000000001
H      -8.928570000000001     -0.313450000000000      7.329450000000000
C     -11.583970000000001     -3.433720000000000      7.577710000000000
C      -9.971430000000000     -4.498160000000000      5.996290000000000
C      -9.156730000000000     -3.824630000000000      8.203760000000001
H     -12.280930000000000     -3.174580000000000      6.749900000000000
H     -11.849119999999999     -4.438870000000000      7.964360000000000
H     -11.725450000000000     -2.718720000000000      8.407780000000001
H      -8.935420000000001     -4.528010000000000      5.598420000000000
H     -10.205030000000001     -5.500560000000000      6.418240000000000
H     -10.661590000000000     -4.369940000000000      5.167080000000000
H      -8.116890000000000     -3.861400000000000      7.813880000000000
H      -9.180859999999999     -3.164890000000000      9.087820000000001
H      -9.411470000000000     -4.839540000000000      8.574430000000000

-C 0
6-31g(d,p)
****
-H 0
6-31g(d,p)
****
-Mg 0
6-31g(d,p)
****
-N 0
6-31+g(d,p)
****
-Na 0
6-31g(d,p)
****
-O 0
6-31+g(d,p)
****


