%chk=lowest10_c1_a1_speciation7_speciationDFT39_rank09_E208.72.chk
%nprocshared=20
%mem=40GB
#p opt=loose PM7/gen scf=xqc 

lowest10_c1_a1_speciation7_speciationDFT39_rank09_E208.72 DFT input

0 1
Na     -0.843820000000000     -0.107760000000000     -1.302250000000000
C       1.842610000000000      1.579100000000000     -1.217180000000000
C       2.372410000000000     -0.673510000000000     -0.818070000000000
O       1.425370000000000      0.361180000000000     -0.630380000000000
C       1.403540000000000      1.669580000000000     -2.677020000000000
C       3.389070000000000     -0.713950000000000      0.321400000000000
H       1.358320000000000      2.408880000000000     -0.659770000000000
H       2.938880000000000      1.742000000000000     -1.122850000000000
H       1.822150000000000     -1.638940000000000     -0.829720000000000
H       2.892030000000000     -0.601390000000000     -1.798120000000000
H       2.882870000000000     -0.897760000000000      1.292470000000000
H       4.110820000000000     -1.537790000000000      0.138210000000000
H       3.951860000000000      0.240050000000000      0.381160000000000
H       0.297830000000000      1.601820000000000     -2.755130000000000
H       1.731490000000000      2.642160000000000     -3.099700000000000
H       1.858650000000000      0.855930000000000     -3.277030000000000
C       0.023620000000000     -1.892320000000000     -3.923400000000000
C      -2.342000000000000     -1.952450000000000     -3.608550000000000
O      -1.079390000000000     -1.564640000000000     -3.099240000000000
C       0.004200000000000     -1.197130000000000     -5.284310000000000
C      -2.496610000000000     -3.463360000000000     -3.774710000000000
H       0.927690000000000     -1.528500000000000     -3.391350000000000
H       0.155240000000000     -2.989540000000000     -4.017670000000000
H      -3.092570000000000     -1.634650000000000     -2.852850000000000
H      -2.601160000000000     -1.401650000000000     -4.536360000000000
H      -2.237490000000000     -3.980530000000000     -2.826770000000000
H      -3.550020000000000     -3.696080000000000     -4.036280000000000
H      -1.851840000000000     -3.837640000000000     -4.595140000000000
H      -0.108040000000000     -0.100020000000000     -5.154160000000000
H       0.961110000000000     -1.400470000000000     -5.809560000000000
H      -0.819330000000000     -1.586710000000000     -5.915940000000000
Na      0.859150000000000      0.435230000000000      1.659470000000000
C      -2.379510000000000      0.574120000000000      1.245000000000000
C      -1.648760000000000     -1.647420000000000      1.411470000000000
O      -1.319980000000000     -0.331260000000000      1.014180000000000
C      -1.840670000000000      1.998300000000000      1.148820000000000
C      -2.521200000000000     -2.363800000000000      0.380660000000000
H      -3.161210000000000      0.449500000000000      0.465970000000000
H      -2.818670000000000      0.456020000000000      2.259510000000000
H      -0.694660000000000     -2.211620000000000      1.492610000000000
H      -2.110790000000000     -1.676580000000000      2.422240000000000
H      -2.011510000000000     -2.392940000000000     -0.604470000000000
H      -2.701010000000000     -3.407600000000000      0.714420000000000
H      -3.502810000000000     -1.859530000000000      0.272610000000000
H      -1.357730000000000      2.163310000000000      0.161740000000000
H      -2.670410000000000      2.727000000000000      1.266160000000000
H      -1.092890000000000      2.183260000000000      1.948260000000000
C       0.581630000000000      1.317760000000000      4.824830000000000
C       1.819100000000000      2.896360000000000      3.653590000000000
O       1.054650000000000      1.718790000000000      3.561900000000000
C      -0.215570000000000      0.030510000000000      4.642790000000000
C       2.260200000000000      3.281930000000000      2.245660000000000
H       1.426660000000000      1.106210000000000      5.518000000000000
H      -0.098580000000000      2.087460000000000      5.252990000000000
H       1.212200000000000      3.733470000000000      4.065930000000000
H       2.731040000000000      2.728440000000000      4.269290000000000
H       1.369510000000000      3.456970000000000      1.604800000000000
H       2.870520000000000      4.208510000000000      2.270640000000000
H       2.866260000000000      2.464750000000000      1.797280000000000
H       0.433710000000000     -0.765400000000000      4.217400000000000
H      -0.620950000000000     -0.316740000000000      5.615590000000000
H      -1.062250000000000      0.205640000000000      3.947500000000000
Mg     -7.219930000000000      0.216070000000000      7.696910000000000
H      -7.857870000000000     -1.686180000000000      5.811520000000000
C      -9.430740000000000     -1.785610000000000      7.345850000000000
C      -7.978440000000000     -1.641010000000000      6.911280000000000
C     -10.287250000000000     -0.731390000000000      6.658550000000000
H      -9.812049999999999     -2.794760000000000      7.090390000000000
H      -9.485900000000001     -1.659850000000000      8.446970000000000
H      -9.814299999999999      0.247490000000000      6.781270000000000
H     -10.328680000000000     -0.940510000000000      5.569980000000000
C     -11.693199999999999     -0.680350000000000      7.249090000000000
H      -7.372260000000000     -2.446460000000000      7.381100000000000
H     -12.192930000000000     -1.664980000000000      7.143030000000000
H     -11.649190000000001     -0.407680000000000      8.327050000000000
H     -12.290730000000000      0.091320000000000      6.720290000000000
C      -9.627420000000001      1.009590000000000     12.529140000000000
C     -10.059210000000000      1.318110000000000     11.258710000000001
C      -9.250900000000000      0.623940000000000     10.374450000000000
C      -8.358290000000000     -0.072020000000000     11.075989999999999
N      -8.553050000000001      0.108620000000000     12.460100000000001
C      -7.265760000000000     -0.929240000000000     10.502509999999999
N      -6.170110000000000     -0.081760000000000      9.993620000000000
C      -4.893900000000000     -0.156380000000000     10.735049999999999
H     -10.872299999999999      1.991610000000000     11.014860000000001
H     -10.040690000000000      1.399470000000000     13.448510000000001
H      -9.319810000000000      0.636520000000000      9.303380000000001
H      -7.658940000000000     -1.564940000000000      9.690960000000000
H      -6.932390000000000     -1.643880000000000     11.271820000000000
C      -4.235530000000000     -1.517740000000000     10.458130000000001
C      -3.947830000000000      0.960490000000000     10.246670000000000
C      -5.097040000000000      0.091930000000000     12.244130000000000
H      -4.080120000000000     -1.651750000000000      9.365679999999999
H      -3.253110000000000     -1.588950000000000     10.965180000000000
H      -4.873750000000000     -2.353720000000000     10.804990000000000
H      -4.411950000000000      1.954070000000000     10.401260000000001
H      -2.986200000000000      0.938020000000000     10.799810000000001
H      -3.676940000000000      0.868160000000000      9.188390000000000
H      -5.562120000000000      1.088280000000000     12.401210000000001
H      -5.736290000000000     -0.664810000000000     12.730910000000000
H      -4.117350000000000      0.073210000000000     12.764770000000000
Mg     -6.892780000000000      2.292110000000000      9.889860000000001
H      -7.756120000000000      4.387440000000000     11.418229999999999
C      -5.668360000000000      4.227890000000000     12.071600000000000
C      -6.984220000000000      3.611980000000000     11.586440000000000
C      -5.151720000000000      5.344050000000000     11.158950000000001
H      -5.882750000000000      4.689530000000000     13.057800000000000
H      -4.890430000000000      3.448270000000000     12.229300000000000
H      -5.971660000000000      6.074380000000000     10.986770000000000
H      -4.319910000000000      5.868490000000000     11.674820000000000
C      -4.619490000000000      4.839510000000000      9.826930000000001
H      -7.348570000000000      2.930080000000000     12.385809999999999
H      -3.745680000000000      4.173570000000000      9.984629999999999
H      -5.408860000000000      4.292880000000000      9.291679999999999
H      -4.296340000000000      5.701390000000000      9.205970000000001
C      -4.935560000000000      0.321910000000000      4.422350000000000
C      -4.435330000000000     -0.510430000000000      5.400560000000000
C      -4.583690000000000      0.155630000000000      6.597600000000000
C      -5.150420000000000      1.329210000000000      6.316830000000000
N      -5.362830000000000      1.420410000000000      4.933900000000000
C      -5.520760000000000      2.427860000000000      7.292330000000000
N      -6.903910000000000      2.284740000000000      7.798240000000000
C      -7.921910000000000      3.222020000000000      7.237860000000000
H      -4.016090000000000     -1.500500000000000      5.261840000000000
H      -4.981240000000000      0.106810000000000      3.368730000000000
H      -4.297630000000000     -0.240830000000000      7.549140000000000
H      -5.306270000000000      3.398770000000000      6.820250000000000
H      -4.831780000000000      2.391120000000000      8.146950000000000
C      -8.086790000000001      2.980320000000000      5.729650000000000
C      -9.291309999999999      3.026280000000000      7.918680000000000
C      -7.547880000000000      4.697120000000000      7.519920000000000
H      -8.400340000000000      1.929490000000000      5.542170000000000
H      -8.852589999999999      3.661400000000000      5.305200000000000
H      -7.139560000000000      3.173590000000000      5.193210000000000
H      -9.229649999999999      3.192660000000000      9.014699999999999
H     -10.035710000000000      3.742630000000000      7.505840000000000
H      -9.712020000000001      2.040630000000000      7.739420000000000
H      -7.489700000000000      4.872930000000000      8.615679999999999
H      -6.598710000000000      5.019050000000000      7.058640000000000
H      -8.329850000000000      5.373260000000000      7.114840000000000

-C 0
6-31g(d,p)
****
-H 0
6-31g(d,p)
****
-Mg 0
6-31g(d,p)
****
-N 0
6-31+g(d,p)
****
-Na 0
6-31g(d,p)
****
-O 0
6-31+g(d,p)
****


