%chk=lowest10_c1_a1_speciation7_speciationDFT39_rank04_E208.61.chk
%nprocshared=20
%mem=40GB
#p opt=loose PM7/gen scf=xqc 

lowest10_c1_a1_speciation7_speciationDFT39_rank04_E208.61 DFT input

0 1
Na     -0.843910000000000     -0.108270000000000     -1.301300000000000
C       1.842550000000000      1.579090000000000     -1.217160000000000
C       2.372360000000000     -0.673530000000000     -0.818020000000000
O       1.425320000000000      0.361180000000000     -0.630340000000000
C       1.403520000000000      1.669570000000000     -2.677010000000000
C       3.389060000000000     -0.713960000000000      0.321410000000000
H       1.358250000000000      2.408880000000000     -0.659780000000000
H       2.938820000000000      1.742000000000000     -1.122810000000000
H       1.822100000000000     -1.638960000000000     -0.829650000000000
H       2.891950000000000     -0.601420000000000     -1.798090000000000
H       2.882910000000000     -0.897830000000000      1.292500000000000
H       4.110840000000000     -1.537770000000000      0.138170000000000
H       3.951820000000000      0.240050000000000      0.381180000000000
H       0.297800000000000      1.601860000000000     -2.755160000000000
H       1.731520000000000      2.642130000000000     -3.099700000000000
H       1.858610000000000      0.855900000000000     -3.277010000000000
C       0.023560000000000     -1.892280000000000     -3.923300000000000
C      -2.342070000000000     -1.952400000000000     -3.608400000000000
O      -1.079440000000000     -1.564570000000000     -3.099130000000000
C       0.004150000000000     -1.197140000000000     -5.284250000000000
C      -2.496680000000000     -3.463320000000000     -3.774590000000000
H       0.927640000000000     -1.528450000000000     -3.391280000000000
H       0.155190000000000     -2.989500000000000     -4.017560000000000
H      -3.092630000000000     -1.634630000000000     -2.852670000000000
H      -2.601240000000000     -1.401610000000000     -4.536210000000000
H      -2.237510000000000     -3.980520000000000     -2.826680000000000
H      -3.550090000000000     -3.696040000000000     -4.036130000000000
H      -1.851940000000000     -3.837550000000000     -4.595070000000000
H      -0.108100000000000     -0.100020000000000     -5.154160000000000
H       0.961090000000000     -1.400470000000000     -5.809470000000000
H      -0.819350000000000     -1.586750000000000     -5.915880000000000
Na      0.858420000000000      0.435150000000000      1.659230000000000
C      -2.382930000000000      0.573470000000000      1.246210000000000
C      -1.650870000000000     -1.648050000000000      1.412360000000000
O      -1.322730000000000     -0.331550000000000      1.016180000000000
C      -1.842490000000000      1.997490000000000      1.149690000000000
C      -2.523670000000000     -2.363960000000000      0.381580000000000
H      -3.162760000000000      0.449270000000000      0.465320000000000
H      -2.826910000000000      0.454180000000000      2.260000000000000
H      -0.696330000000000     -2.211870000000000      1.492480000000000
H      -2.112260000000000     -1.677910000000000      2.423210000000000
H      -2.013960000000000     -2.392640000000000     -0.603670000000000
H      -2.702990000000000     -3.407890000000000      0.715020000000000
H      -3.505560000000000     -1.859950000000000      0.274360000000000
H      -1.358460000000000      2.161700000000000      0.162840000000000
H      -2.671280000000000      2.727360000000000      1.265650000000000
H      -1.094590000000000      2.182500000000000      1.949070000000000
C       0.583100000000000      1.317420000000000      4.824110000000000
C       1.819510000000000      2.896750000000000      3.653280000000000
O       1.055090000000000      1.719340000000000      3.561230000000000
C      -0.212290000000000      0.029400000000000      4.641570000000000
C       2.260510000000000      3.282250000000000      2.245400000000000
H       1.428410000000000      1.106330000000000      5.517030000000000
H      -0.097750000000000      2.086280000000000      5.252910000000000
H       1.212510000000000      3.733730000000000      4.065740000000000
H       2.731410000000000      2.728730000000000      4.269010000000000
H       1.369700000000000      3.457140000000000      1.604640000000000
H       2.870790000000000      4.208810000000000      2.270330000000000
H       2.866460000000000      2.464940000000000      1.797080000000000
H       0.436900000000000     -0.765600000000000      4.214840000000000
H      -0.613710000000000     -0.319230000000000      5.614760000000000
H      -1.060540000000000      0.204100000000000      3.947980000000000
Mg     -7.876270000000000     -1.110050000000000      7.366030000000000
H      -6.538010000000000     -1.965160000000000      9.616120000000000
C      -5.339890000000000     -2.628430000000000      7.894900000000000
C      -6.667270000000000     -2.394250000000000      8.603510000000000
C      -4.542510000000000     -1.332710000000000      7.841890000000000
H      -4.749940000000000     -3.403070000000000      8.424930000000000
H      -5.546500000000000     -2.989610000000000      6.866260000000000
H      -5.186920000000000     -0.532660000000000      7.465640000000000
H      -4.232170000000000     -1.047140000000000      8.867900000000001
C      -3.326150000000000     -1.459560000000000      6.929600000000000
H      -7.217960000000000     -3.357480000000000      8.679729999999999
H      -2.657500000000000     -2.269520000000000      7.286470000000000
H      -3.645640000000000     -1.682860000000000      5.887300000000000
H      -2.767870000000000     -0.500560000000000      6.923380000000000
C      -6.764190000000000     -2.371520000000000      2.214940000000000
C      -6.099460000000000     -1.500510000000000      3.058040000000000
C      -6.555980000000000     -1.770520000000000      4.335080000000000
C      -7.446690000000000     -2.743050000000000      4.223690000000000
N      -7.562280000000000     -3.128630000000000      2.878480000000000
C      -8.244579999999999     -3.347550000000000      5.348350000000000
N      -9.329770000000000     -2.432040000000000      5.751020000000000
C     -10.706890000000000     -2.893940000000000      5.478010000000000
H      -5.376480000000000     -0.745180000000000      2.767980000000000
H      -6.653010000000000     -2.425490000000000      1.142820000000000
H      -6.257420000000000     -1.297240000000000      5.248660000000000
H      -7.589550000000000     -3.554400000000000      6.212010000000000
H      -8.610030000000000     -4.340150000000000      5.040300000000000
C     -11.051860000000000     -4.036110000000000      6.447420000000000
C     -11.696580000000001     -1.732410000000000      5.709090000000000
C     -10.883400000000000     -3.311990000000000      4.003800000000000
H     -10.942360000000001     -3.691970000000000      7.498790000000000
H     -12.095380000000000     -4.376910000000000      6.296630000000000
H     -10.372909999999999     -4.900360000000000      6.310700000000000
H     -11.450150000000001     -0.878160000000000      5.048850000000000
H     -12.738270000000000     -2.047570000000000      5.492510000000000
H     -11.711550000000001     -1.373300000000000      6.744810000000000
H     -10.635850000000000     -2.456600000000000      3.340080000000000
H     -10.249639999999999     -4.166630000000000      3.710920000000000
H     -11.936070000000001     -3.610370000000000      3.819660000000000
Mg     -9.009350000000000     -0.207370000000000      4.698260000000000
H      -8.858660000000000      1.064610000000000      2.284760000000000
C     -10.982120000000000      0.516920000000000      2.334740000000000
C      -9.508749999999999      0.249480000000000      2.656690000000000
C     -11.467070000000000      1.886110000000000      2.820240000000000
H     -11.066290000000000      0.517510000000000      1.228160000000000
H     -11.634950000000000     -0.297790000000000      2.719350000000000
H     -10.762390000000000      2.665150000000000      2.457150000000000
H     -12.466180000000000      2.086210000000000      2.378900000000000
C     -11.606780000000001      1.978140000000000      4.331560000000000
H      -9.218090000000000     -0.688910000000000      2.135580000000000
H     -12.370830000000000      1.260140000000000      4.695720000000000
H     -10.640610000000001      1.764030000000000      4.810160000000000
H     -11.926520000000000      3.003550000000000      4.612930000000000
C      -9.381959999999999      0.273900000000000     10.799580000000001
C      -9.933050000000000     -0.930000000000000     10.413040000000001
C     -10.159509999999999     -0.839900000000000      9.057090000000001
C      -9.750460000000000      0.370540000000000      8.677429999999999
N      -9.264480000000001      1.064360000000000      9.796170000000000
C      -9.788940000000000      0.958360000000000      7.282540000000000
N      -8.544180000000001      0.690900000000000      6.528510000000000
C      -7.599660000000000      1.836050000000000      6.369140000000000
H     -10.141430000000000     -1.784850000000000     11.045500000000001
H      -9.078910000000000      0.540010000000000     11.798679999999999
H     -10.574299999999999     -1.625650000000000      8.460610000000001
H     -10.054320000000001      2.023730000000000      7.361110000000000
H     -10.631230000000000      0.515820000000000      6.733570000000000
C      -7.074650000000000      2.281120000000000      7.742650000000000
C      -6.396710000000000      1.445770000000000      5.487360000000000
C      -8.266180000000000      3.018950000000000      5.626310000000000
H      -6.557720000000000      1.435200000000000      8.247579999999999
H      -6.359390000000000      3.122070000000000      7.634840000000000
H      -7.902000000000000      2.632100000000000      8.386580000000000
H      -6.720590000000000      1.115990000000000      4.477790000000000
H      -5.711120000000000      2.312460000000000      5.360070000000000
H      -5.787660000000000      0.663720000000000      5.931820000000000
H      -8.588620000000001      2.699170000000000      4.612040000000000
H      -9.133030000000000      3.453010000000000      6.153100000000000
H      -7.538840000000000      3.848080000000000      5.499140000000000

-C 0
6-31g(d,p)
****
-H 0
6-31g(d,p)
****
-Mg 0
6-31g(d,p)
****
-N 0
6-31+g(d,p)
****
-Na 0
6-31g(d,p)
****
-O 0
6-31+g(d,p)
****


