%chk=lowest10_c1_a1_speciation7_speciationDFT39_rank03_E208.48.chk
%nprocshared=20
%mem=40GB
#p opt=loose PM7/gen scf=xqc 

lowest10_c1_a1_speciation7_speciationDFT39_rank03_E208.48 DFT input

0 1
Na     -0.843950000000000     -0.107840000000000     -1.301870000000000
C       1.842590000000000      1.579090000000000     -1.217180000000000
C       2.372400000000000     -0.673520000000000     -0.818080000000000
O       1.425350000000000      0.361170000000000     -0.630390000000000
C       1.403520000000000      1.669570000000000     -2.677020000000000
C       3.389060000000000     -0.713950000000000      0.321390000000000
H       1.358310000000000      2.408870000000000     -0.659780000000000
H       2.938870000000000      1.742000000000000     -1.122860000000000
H       1.822150000000000     -1.638950000000000     -0.829730000000000
H       2.892030000000000     -0.601400000000000     -1.798130000000000
H       2.882850000000000     -0.897750000000000      1.292460000000000
H       4.110810000000000     -1.537800000000000      0.138210000000000
H       3.951850000000000      0.240050000000000      0.381150000000000
H       0.297810000000000      1.601820000000000     -2.755120000000000
H       1.731470000000000      2.642160000000000     -3.099700000000000
H       1.858630000000000      0.855930000000000     -3.277030000000000
C       0.023560000000000     -1.892310000000000     -3.923350000000000
C      -2.342060000000000     -1.952420000000000     -3.608460000000000
O      -1.079430000000000     -1.564610000000000     -3.099170000000000
C       0.004150000000000     -1.197130000000000     -5.284280000000000
C      -2.496670000000000     -3.463330000000000     -3.774640000000000
H       0.927650000000000     -1.528490000000000     -3.391330000000000
H       0.155190000000000     -2.989530000000000     -4.017630000000000
H      -3.092630000000000     -1.634620000000000     -2.852760000000000
H      -2.601210000000000     -1.401630000000000     -4.536280000000000
H      -2.237550000000000     -3.980510000000000     -2.826700000000000
H      -3.550070000000000     -3.696060000000000     -4.036220000000000
H      -1.851900000000000     -3.837600000000000     -4.595070000000000
H      -0.108070000000000     -0.100020000000000     -5.154140000000000
H       0.961070000000000     -1.400480000000000     -5.809520000000000
H      -0.819370000000000     -1.586700000000000     -5.915910000000000
Na      0.858660000000000      0.435040000000000      1.659290000000000
C      -2.381530000000000      0.573750000000000      1.245310000000000
C      -1.650250000000000     -1.647720000000000      1.412030000000000
O      -1.321730000000000     -0.331500000000000      1.014900000000000
C      -1.841950000000000      1.997860000000000      1.149010000000000
C      -2.522790000000000     -2.363950000000000      0.381360000000000
H      -3.162570000000000      0.449330000000000      0.465630000000000
H      -2.822510000000000      0.455040000000000      2.259460000000000
H      -0.695930000000000     -2.211740000000000      1.492800000000000
H      -2.112210000000000     -1.677100000000000      2.422770000000000
H      -2.013030000000000     -2.392870000000000     -0.603820000000000
H      -2.702340000000000     -3.407770000000000      0.715090000000000
H      -3.504480000000000     -1.859730000000000      0.273760000000000
H      -1.358550000000000      2.162580000000000      0.162030000000000
H      -2.671270000000000      2.727060000000000      1.265870000000000
H      -1.093970000000000      2.182790000000000      1.948330000000000
C       0.582610000000000      1.317560000000000      4.824390000000000
C       1.819490000000000      2.896530000000000      3.653370000000000
O       1.055370000000000      1.718840000000000      3.561520000000000
C      -0.214060000000000      0.030070000000000      4.642060000000000
C       2.260430000000000      3.282120000000000      2.245470000000000
H       1.427620000000000      1.106220000000000      5.517620000000000
H      -0.097800000000000      2.087080000000000      5.252620000000000
H       1.212380000000000      3.733490000000000      4.065750000000000
H       2.731410000000000      2.728720000000000      4.269100000000000
H       1.369630000000000      3.457040000000000      1.604710000000000
H       2.870660000000000      4.208730000000000      2.270450000000000
H       2.866460000000000      2.464910000000000      1.797110000000000
H       0.435300000000000     -0.765690000000000      4.216680000000000
H      -0.619210000000000     -0.317400000000000      5.614860000000000
H      -1.060680000000000      0.205090000000000      3.946630000000000
Mg     -9.237590000000001     -0.482310000000000      4.484710000000000
H     -10.620520000000001     -1.161430000000000      2.202390000000000
C     -10.149310000000000      0.979770000000000      2.026070000000000
C     -10.585480000000000     -0.243680000000000      2.820920000000000
C      -8.804850000000000      0.716940000000000      1.362040000000000
H     -10.902329999999999      1.225540000000000      1.250430000000000
H     -10.067550000000001      1.842480000000000      2.719180000000000
H      -8.110120000000000      0.320450000000000      2.108450000000000
H      -8.924140000000000     -0.060970000000000      0.580340000000000
C      -8.216540000000000      1.991870000000000      0.764990000000000
H     -11.590240000000000     -0.057710000000000      3.260100000000000
H      -8.906540000000000      2.418310000000000      0.008310000000000
H      -8.039910000000001      2.746120000000000      1.563860000000000
H      -7.243080000000000      1.762170000000000      0.283510000000000
C      -7.779630000000000      4.521580000000000      6.095100000000000
C      -7.258860000000000      3.718080000000000      5.105720000000000
C      -8.176190000000000      2.706120000000000      4.878530000000000
C      -9.209090000000000      2.880440000000000      5.700760000000000
N      -9.034680000000000      4.033630000000000      6.492000000000000
C     -10.406300000000000      1.979310000000000      5.810340000000000
N     -10.052630000000001      0.753710000000000      6.552280000000000
C     -10.676489999999999      0.597740000000000      7.882880000000000
H      -6.301780000000000      3.858510000000000      4.617400000000000
H      -7.302240000000000      5.395350000000000      6.515430000000000
H      -8.082860000000000      1.909450000000000      4.165280000000000
H     -10.785860000000000      1.717170000000000      4.808070000000000
H     -11.232379999999999      2.539070000000000      6.277190000000000
C     -12.172150000000000      0.293010000000000      7.699510000000000
C     -10.017260000000000     -0.582930000000000      8.626120000000000
C     -10.443260000000000      1.838370000000000      8.769810000000000
H     -12.302770000000001     -0.620010000000000      7.079140000000000
H     -12.661709999999999      0.126280000000000      8.679230000000000
H     -12.693040000000000      1.121110000000000      7.180450000000000
H      -8.929959999999999     -0.407090000000000      8.741740000000000
H     -10.456239999999999     -0.712170000000000      9.636970000000000
H     -10.158270000000000     -1.546370000000000      8.122290000000000
H      -9.353170000000000      2.016080000000000      8.887300000000000
H     -10.898479999999999      2.758740000000000      8.364890000000001
H     -10.884520000000000      1.672340000000000      9.774279999999999
Mg     -7.587540000000000      0.578400000000000      6.802740000000000
H      -5.402140000000000      1.817820000000000      7.879040000000000
C      -6.428800000000000      1.134850000000000      9.693080000000000
C      -6.431690000000000      1.664910000000000      8.255979999999999
C      -5.574450000000000     -0.123830000000000      9.870410000000000
H      -5.970130000000000      1.928090000000000     10.319220000000000
H      -7.464090000000000      0.971090000000000     10.066229999999999
H      -4.566350000000000      0.064090000000000      9.441750000000001
H      -5.459900000000000     -0.325500000000000     10.956350000000000
C      -6.184030000000000     -1.363820000000000      9.235690000000000
H      -6.946080000000000      2.650840000000000      8.264699999999999
H      -7.154590000000000     -1.608740000000000      9.715249999999999
H      -6.334980000000000     -1.197340000000000      8.159590000000000
H      -5.497820000000000     -2.226010000000000      9.372030000000001
C      -9.905430000000001     -4.399690000000000      4.074580000000000
C     -10.916829999999999     -3.746130000000000      4.745640000000000
C     -10.308630000000001     -2.872130000000000      5.619970000000000
C      -8.993660000000000     -3.016190000000000      5.454660000000000
N      -8.755030000000000     -3.990670000000000      4.475160000000000
C      -7.889730000000000     -2.280250000000000      6.185830000000000
N      -7.483550000000000     -1.042340000000000      5.484750000000000
C      -6.186650000000000     -1.085800000000000      4.746230000000000
H     -11.983660000000000     -3.883260000000000      4.610020000000000
H     -10.030870000000000     -5.150380000000000      3.313030000000000
H     -10.834239999999999     -2.211750000000000      6.277320000000000
H      -7.067550000000000     -2.986770000000000      6.376730000000000
H      -8.246530000000000     -2.011530000000000      7.189410000000000
C      -6.263820000000000     -2.110770000000000      3.604230000000000
C      -5.843990000000000      0.292000000000000      4.146180000000000
C      -5.006530000000000     -1.408480000000000      5.694200000000000
H      -7.086050000000000     -1.842970000000000      2.904300000000000
H      -5.309760000000000     -2.139980000000000      3.038490000000000
H      -6.445520000000000     -3.127580000000000      3.998680000000000
H      -5.772190000000000      1.073060000000000      4.931950000000000
H      -4.868020000000000      0.250650000000000      3.615810000000000
H      -6.563200000000000      0.615000000000000      3.398500000000000
H      -4.925190000000000     -0.627870000000000      6.480970000000000
H      -5.075590000000000     -2.396080000000000      6.181360000000000
H      -4.051500000000000     -1.412040000000000      5.127520000000000

-C 0
6-31g(d,p)
****
-H 0
6-31g(d,p)
****
-Mg 0
6-31g(d,p)
****
-N 0
6-31+g(d,p)
****
-Na 0
6-31g(d,p)
****
-O 0
6-31+g(d,p)
****


