%chk=lowest10_c1_a1_speciation7_speciationDFT45_rank03_E186.21.chk
%nprocshared=20
%mem=40GB
#p opt=loose PM7/gen scf=xqc 

lowest10_c1_a1_speciation7_speciationDFT45_rank03_E186.21 DFT input

0 1
Na     -0.184040000000000     -0.003030000000000      1.549690000000000
C       2.577500000000000      0.831260000000000      0.226670000000000
C       0.941130000000000      2.376170000000000     -0.443900000000000
O       1.219950000000000      1.026980000000000     -0.120430000000000
C       2.806400000000000      1.061740000000000      1.718830000000000
C       1.144740000000000      2.647230000000000     -1.933410000000000
H       2.838800000000000     -0.223620000000000     -0.003000000000000
H       3.265740000000000      1.459310000000000     -0.380900000000000
H      -0.124410000000000      2.571210000000000     -0.195780000000000
H       1.536620000000000      3.090910000000000      0.164600000000000
H       0.469020000000000      2.011720000000000     -2.543760000000000
H       0.914500000000000      3.712620000000000     -2.145870000000000
H       2.194930000000000      2.448320000000000     -2.230000000000000
H       2.185260000000000      0.364100000000000      2.319490000000000
H       3.875430000000000      0.883180000000000      1.958430000000000
H       2.553980000000000      2.103960000000000      2.000310000000000
C      -0.458600000000000      2.719750000000000      3.372920000000000
C      -1.847750000000000      0.981980000000000      4.238700000000000
O      -1.000930000000000      1.424650000000000      3.194200000000000
C       0.453170000000000      2.843290000000000      4.593260000000000
C      -3.100580000000000      1.838550000000000      4.414960000000000
H       0.172350000000000      2.917990000000000      2.481060000000000
H      -1.245810000000000      3.500930000000000      3.360020000000000
H      -2.192500000000000     -0.034330000000000      3.949390000000000
H      -1.295040000000000      0.849530000000000      5.191790000000000
H      -3.631680000000000      1.942870000000000      3.445300000000000
H      -3.777520000000000      1.349380000000000      5.146200000000000
H      -2.840170000000000      2.840950000000000      4.810360000000000
H       1.241100000000000      2.061260000000000      4.565390000000000
H       0.938100000000000      3.842140000000000      4.584540000000000
H      -0.129050000000000      2.756680000000000      5.532640000000000
Na      0.367000000000000     -0.336400000000000     -1.847600000000000
C      -1.133970000000000     -2.507610000000000      0.084190000000000
C      -2.576570000000000     -0.746830000000000     -0.479390000000000
O      -1.237660000000000     -1.139510000000000     -0.253190000000000
C       0.324080000000000     -2.937750000000000     -0.051170000000000
C      -3.339940000000000     -0.511020000000000      0.823630000000000
H      -1.440080000000000     -2.661480000000000      1.140560000000000
H      -1.735360000000000     -3.155400000000000     -0.592020000000000
H      -2.544820000000000      0.219150000000000     -1.028340000000000
H      -3.115630000000000     -1.459680000000000     -1.140320000000000
H      -2.830100000000000      0.260710000000000      1.436490000000000
H      -4.365320000000000     -0.154570000000000      0.589040000000000
H      -3.422070000000000     -1.448160000000000      1.409320000000000
H       0.976490000000000     -2.299840000000000      0.583310000000000
H       0.439850000000000     -3.994770000000000      0.268770000000000
H       0.657070000000000     -2.849880000000000     -1.106640000000000
C       0.086470000000000     -2.330890000000000     -4.458340000000000
C       2.325550000000000     -1.934760000000000     -3.985680000000000
O       0.997170000000000     -1.730030000000000     -3.570150000000000
C      -1.323330000000000     -2.047040000000000     -3.951100000000000
C       3.245410000000000     -1.288110000000000     -2.955690000000000
H       0.180510000000000     -1.897480000000000     -5.479410000000000
H       0.229480000000000     -3.434300000000000     -4.481920000000000
H       2.565970000000000     -3.020800000000000     -4.028860000000000
H       2.510800000000000     -1.449320000000000     -4.970020000000000
H       3.083700000000000     -1.753000000000000     -1.959490000000000
H       4.308020000000000     -1.423770000000000     -3.245590000000000
H       3.029790000000000     -0.200040000000000     -2.879950000000000
H      -1.504760000000000     -0.950830000000000     -3.915760000000000
H      -2.077350000000000     -2.515550000000000     -4.616770000000000
H      -1.446900000000000     -2.459230000000000     -2.928390000000000
Mg     -8.220400000000000     -4.418380000000000      2.775180000000000
H      -6.326990000000000     -5.128390000000000      5.262500000000000
C      -8.292350000000001     -4.353530000000000      5.939830000000000
C      -7.120850000000000     -4.414280000000000      4.972710000000000
C      -8.927790000000000     -5.734180000000000      6.123240000000000
H      -7.920580000000000     -3.972600000000000      6.911990000000000
H      -9.052830000000000     -3.648040000000000      5.538790000000000
H      -9.299740000000000     -6.110840000000000      5.150270000000000
H      -8.166259999999999     -6.443860000000000      6.510740000000000
C     -10.098699999999999     -5.674860000000000      7.099540000000000
H      -6.718630000000000     -3.402540000000000      4.751670000000000
H      -9.761089999999999     -5.272260000000000      8.077750000000000
H     -10.906079999999999     -5.026630000000000      6.696760000000000
H     -10.508940000000001     -6.694900000000000      7.256110000000000
C     -11.247430000000000     -4.639440000000000      3.590810000000000
C     -12.354630000000000     -5.433120000000000      3.350310000000000
C     -11.964869999999999     -6.390700000000000      2.432300000000000
C     -10.639939999999999     -6.129340000000000      2.156250000000000
N     -10.210500000000000     -5.072040000000000      2.852830000000000
C      -9.729710000000001     -6.852020000000000      1.240330000000000
N      -8.422390000000000     -6.996470000000000      1.897860000000000
C      -8.098020000000000     -8.284829999999999      2.509030000000000
H     -13.332229999999999     -5.329350000000000      3.801830000000000
H     -11.199870000000001     -3.808460000000000      4.281610000000000
H     -12.578170000000000     -7.178390000000000      2.014310000000000
H      -9.585680000000000     -6.162750000000000      0.397510000000000
H     -10.154059999999999     -7.787480000000000      0.823650000000000
C      -7.668110000000000     -9.276030000000000      1.412970000000000
C      -6.923170000000000     -8.051670000000000      3.475040000000000
C      -9.279199999999999     -8.825920000000000      3.325150000000000
H      -6.770420000000000     -8.899820000000000      0.871530000000000
H      -7.423810000000000    -10.262700000000001      1.857500000000000
H      -8.477240000000000     -9.420420000000000      0.668890000000000
H      -7.204380000000000     -7.332080000000000      4.270630000000000
H      -6.593900000000000     -9.001799999999999      3.942250000000000
H      -6.054720000000000     -7.624060000000000      2.958900000000000
H      -9.597180000000000     -8.062960000000000      4.063390000000000
H     -10.144600000000001     -9.066090000000001      2.677750000000000
H      -8.981510000000000     -9.744529999999999      3.867160000000000
Mg     -7.346670000000000     -5.985860000000000     -0.022690000000000
H      -7.256620000000000     -6.197670000000000     -2.783610000000000
C      -8.873690000000000     -7.582120000000000     -2.211830000000000
C      -7.523540000000000     -6.895960000000000     -1.967710000000000
C      -9.990769999999999     -6.579970000000000     -2.522440000000000
H      -8.768829999999999     -8.255890000000001     -3.088070000000000
H      -9.134420000000000     -8.205640000000001     -1.329850000000000
H     -10.128240000000000     -5.866780000000000     -1.696190000000000
H      -9.716120000000000     -6.010930000000000     -3.436020000000000
C     -11.326309999999999     -7.281980000000000     -2.753750000000000
H      -6.747150000000000     -7.688560000000000     -1.900390000000000
H     -11.246720000000000     -8.008490000000000     -3.589560000000000
H     -11.646839999999999     -7.815120000000000     -1.832810000000000
H     -12.099990000000000     -6.527400000000000     -3.011110000000000
C      -3.850770000000000     -5.566140000000000     -1.334680000000000
C      -3.939390000000000     -6.643530000000000     -0.476170000000000
C      -4.604980000000000     -6.196420000000000      0.643140000000000
C      -4.905060000000000     -4.921330000000000      0.429090000000000
N      -4.420000000000000     -4.529160000000000     -0.828020000000000
C      -5.728410000000000     -4.044380000000000      1.341640000000000
N      -7.162540000000000     -4.152980000000000      0.987610000000000
C      -7.777460000000000     -2.961670000000000      0.365350000000000
H      -3.600890000000000     -7.657520000000000     -0.659950000000000
H      -3.388430000000000     -5.572450000000000     -2.307900000000000
H      -4.861890000000000     -6.787130000000000      1.493450000000000
H      -5.330130000000000     -3.012080000000000      1.327970000000000
H      -5.594910000000000     -4.398060000000000      2.386480000000000
C      -7.025820000000000     -2.540610000000000     -0.907360000000000
C      -9.219360000000000     -3.311750000000000     -0.020120000000000
C      -7.835510000000000     -1.791640000000000      1.379880000000000
H      -6.996280000000000     -3.387390000000000     -1.625640000000000
H      -7.542150000000000     -1.681600000000000     -1.385470000000000
H      -5.988020000000000     -2.222660000000000     -0.685070000000000
H      -9.804069999999999     -3.629690000000000      0.862930000000000
H      -9.738080000000000     -2.437280000000000     -0.465160000000000
H      -9.216730000000000     -4.128950000000000     -0.760080000000000
H      -8.432930000000001     -2.070590000000000      2.275800000000000
H      -6.832610000000000     -1.478650000000000      1.729730000000000
H      -8.317920000000001     -0.904250000000000      0.919130000000000

-C 0
6-31g(d,p)
****
-H 0
6-31g(d,p)
****
-Mg 0
6-31g(d,p)
****
-N 0
6-31+g(d,p)
****
-Na 0
6-31g(d,p)
****
-O 0
6-31+g(d,p)
****


