%chk=lowest10_c1_a1_speciation7_speciationDFT133_rank05_E222.04.chk
%nprocshared=20
%mem=40GB
#p opt=loose PM7/gen scf=xqc 

lowest10_c1_a1_speciation7_speciationDFT133_rank05_E222.04 DFT input

0 1
Na      0.123300000000000     -0.165880000000000      1.550830000000000
C      -1.979070000000000      1.807760000000000      0.226740000000000
C      -2.498890000000000     -0.381730000000000     -0.443920000000000
O      -1.469790000000000      0.533970000000000     -0.119800000000000
C      -2.293280000000000      1.891180000000000      1.718810000000000
C      -2.835130000000000     -0.339150000000000     -1.933130000000000
H      -1.196220000000000      2.561480000000000     -0.003130000000000
H      -2.867100000000000      2.089760000000000     -0.380890000000000
H      -2.135850000000000     -1.402590000000000     -0.196530000000000
H      -3.415670000000000     -0.223220000000000      0.164460000000000
H      -1.948180000000000     -0.609580000000000     -2.544060000000000
H      -3.645270000000000     -1.066750000000000     -2.144220000000000
H      -3.186280000000000      0.670170000000000     -2.229710000000000
H      -1.378590000000000      1.702190000000000      2.319530000000000
H      -2.673140000000000      2.906340000000000      1.958180000000000
H      -3.069700000000000      1.151520000000000      2.000340000000000
C      -2.097270000000000     -1.766600000000000      3.372460000000000
C       0.101880000000000     -2.101520000000000      4.238130000000000
O      -0.704560000000000     -1.588970000000000      3.193700000000000
C      -2.659770000000000     -1.038250000000000      4.592790000000000
C      -0.013900000000000     -3.615110000000000      4.413720000000000
H      -2.584280000000000     -1.319100000000000      2.480640000000000
H      -2.380310000000000     -2.838980000000000      3.359530000000000
H       1.154460000000000     -1.891540000000000      3.949210000000000
H      -0.059540000000000     -1.556540000000000      5.191290000000000
H       0.161170000000000     -4.127320000000000      3.444050000000000
H       0.748120000000000     -3.956740000000000      5.145050000000000
H      -1.012190000000000     -3.890980000000000      4.808960000000000
H      -2.376220000000000      0.035120000000000      4.564780000000000
H      -3.767260000000000     -1.117330000000000      4.584310000000000
H      -2.293620000000000     -1.498890000000000      5.532290000000000
Na      0.136240000000000      0.478170000000000     -1.848350000000000
C       2.764400000000000      0.264240000000000      0.084370000000000
C       1.959270000000000     -1.865320000000000     -0.479540000000000
O       1.631030000000000     -0.509130000000000     -0.253000000000000
C       2.409300000000000      1.742350000000000     -0.051280000000000
C       2.137980000000000     -2.645120000000000      0.823140000000000
H       3.050180000000000      0.076290000000000      1.140960000000000
H       3.626380000000000      0.066480000000000     -0.591550000000000
H       1.106410000000000     -2.320560000000000     -1.027890000000000
H       2.845170000000000     -1.976030000000000     -1.141680000000000
H       1.216260000000000     -2.588010000000000      1.438040000000000
H       2.337940000000000     -3.711850000000000      0.587520000000000
H       2.994790000000000     -2.251340000000000      1.406630000000000
H       1.530940000000000      1.988990000000000      0.583200000000000
H       3.267340000000000      2.370480000000000      0.268800000000000
H       2.167370000000000      1.986840000000000     -1.106860000000000
C       2.004030000000000      1.232380000000000     -4.458920000000000
C       0.541890000000000      2.973490000000000     -3.985830000000000
O       1.028570000000000      1.720630000000000     -3.570540000000000
C       2.462540000000000     -0.130620000000000     -3.951980000000000
C      -0.477910000000000      3.446670000000000     -2.955710000000000
H       1.581720000000000      1.097370000000000     -5.480000000000000
H       2.888340000000000      1.907690000000000     -4.482280000000000
H       1.362350000000000      3.724590000000000     -4.028920000000000
H       0.028850000000000      2.891330000000000     -4.970160000000000
H       0.005640000000000      3.538960000000000     -1.959540000000000
H      -0.891710000000000      4.434770000000000     -3.245520000000000
H      -1.312370000000000      2.715870000000000     -2.879980000000000
H       1.603890000000000     -0.835780000000000     -3.916650000000000
H       3.245390000000000     -0.549350000000000     -4.617560000000000
H       2.880970000000000     -0.031510000000000     -2.929180000000000
Mg     -2.573700000000000     -8.189100000000000     -3.064150000000000
C      -0.643440000000000     -7.984660000000000     -0.840340000000000
C      -0.367830000000000    -10.228350000000001     -1.536180000000000
O      -1.085560000000000     -9.035410000000001     -1.662650000000000
C       0.302240000000000     -7.065480000000000     -1.592560000000000
C      -0.691570000000000    -11.091180000000000     -2.751490000000000
H      -1.535880000000000     -7.394330000000000     -0.539420000000000
H      -0.177990000000000     -8.338939999999999      0.082270000000000
H       0.728180000000000    -10.055540000000001     -1.503550000000000
H      -0.716440000000000    -10.764500000000000     -0.640340000000000
H      -0.324740000000000    -10.602729999999999     -3.676880000000000
H      -0.216330000000000    -12.087180000000000     -2.648700000000000
H      -1.788770000000000    -11.226360000000000     -2.856880000000000
H      -0.212580000000000     -6.623580000000000     -2.472210000000000
H       0.628840000000000     -6.245770000000000     -0.917560000000000
H       1.190850000000000     -7.635210000000000     -1.930450000000000
H      -1.168890000000000     -8.296530000000001     -5.336940000000000
C      -3.140260000000000     -8.395770000000001     -6.331040000000000
C      -2.114400000000000     -8.877079999999999     -5.328990000000000
C      -3.463730000000000     -6.905390000000000     -6.153220000000000
H      -2.725860000000000     -8.576620000000000     -7.339630000000000
H      -4.065860000000000     -8.996549999999999     -6.204410000000000
H      -3.904160000000000     -6.710740000000000     -5.157780000000000
H      -2.536520000000000     -6.300270000000000     -6.243990000000000
C      -4.465890000000000     -6.453760000000000     -7.207750000000000
H      -1.945630000000000     -9.970050000000001     -5.376030000000000
H      -4.046930000000000     -6.628870000000000     -8.220590000000000
H      -5.416590000000000     -7.019670000000000     -7.101030000000000
H      -4.680480000000000     -5.371010000000000     -7.089300000000000
C      -3.152140000000000     -5.221090000000000     -3.045280000000000
C      -4.148280000000000     -4.369920000000000     -2.622770000000000
C      -5.068360000000000     -5.144420000000000     -1.931610000000000
C      -4.592270000000000     -6.435000000000000     -1.965950000000000
N      -3.462200000000000     -6.466110000000000     -2.667910000000000
C      -5.194100000000000     -7.651920000000000     -1.323450000000000
N      -4.670640000000000     -8.913180000000001     -1.884240000000000
C      -5.598590000000000     -9.643940000000001     -2.767530000000000
H      -4.199060000000000     -3.310020000000000     -2.812140000000000
H      -2.270080000000000     -4.961620000000000     -3.620310000000000
H      -5.985780000000000     -4.810870000000000     -1.471980000000000
H      -4.896260000000000     -7.623420000000000     -0.276070000000000
H      -6.293300000000000     -7.586840000000000     -1.302960000000000
C      -6.143500000000000     -8.712450000000000     -3.856940000000000
C      -4.838390000000000    -10.786820000000001     -3.470920000000000
C      -6.738560000000000    -10.263500000000001     -1.939670000000000
H      -5.291580000000000     -8.287640000000000     -4.412290000000000
H      -6.799100000000000     -9.267180000000000     -4.555060000000000
H      -6.724110000000000     -7.870330000000000     -3.436170000000000
H      -4.432940000000000    -11.510429999999999     -2.756720000000000
H      -5.516350000000000    -11.354970000000000     -4.143290000000000
H      -3.991260000000000    -10.403720000000000     -4.069420000000000
H      -6.328790000000000    -10.938250000000000     -1.158900000000000
H      -7.346260000000000     -9.489850000000001     -1.436770000000000
H      -7.416710000000000    -10.850970000000000     -2.590510000000000
Mg     -3.581300000000000    -10.065910000000001      0.149440000000000
C      -5.471960000000000    -11.109150000000000      2.336770000000000
C      -6.908150000000000     -9.439310000000001      1.438240000000000
O      -5.647000000000000    -10.072130000000000      1.394210000000000
C      -6.269100000000000    -12.363619999999999      1.999280000000000
C      -7.260150000000000     -8.831580000000001      2.792900000000000
H      -4.398030000000000    -11.359310000000001      2.318460000000000
H      -5.650210000000000    -10.782690000000001      3.376890000000000
H      -6.844030000000000     -8.586200000000000      0.736890000000000
H      -7.706990000000000    -10.103520000000000      1.050400000000000
H      -6.424720000000000     -8.203550000000000      3.165810000000000
H      -8.162520000000001     -8.198710000000000      2.678170000000000
H      -7.490890000000000     -9.625510000000000      3.529350000000000
H      -6.048970000000000    -12.712310000000000      0.974300000000000
H      -5.992070000000000    -13.168979999999999      2.711040000000000
H      -7.354310000000000    -12.166570000000000      2.083480000000000
H      -4.634520000000000    -12.434860000000000     -0.681440000000000
C      -3.084810000000000    -13.321460000000000      0.529170000000000
C      -3.573980000000000    -12.237380000000000     -0.433960000000000
C      -3.472290000000000    -14.737650000000000      0.078520000000000
H      -1.983980000000000    -13.263719999999999      0.633930000000000
H      -3.545530000000000    -13.172599999999999      1.519760000000000
H      -3.108910000000000    -15.450210000000000      0.849630000000000
H      -4.580350000000000    -14.823350000000000      0.026090000000000
C      -2.873160000000000    -15.134950000000000     -1.268680000000000
H      -2.988140000000000    -12.333240000000000     -1.362340000000000
H      -3.263870000000000    -14.491009999999999     -2.083570000000000
H      -1.766320000000000    -15.059519999999999     -1.233180000000000
H      -3.155640000000000    -16.183769999999999     -1.498160000000000
C       1.902410000000000     -9.728999999999999      2.205280000000000
C       1.692750000000000    -10.074280000000000      3.526200000000000
C       0.365280000000000    -10.441800000000001      3.644410000000000
C      -0.157570000000000    -10.296239999999999      2.441950000000000
N       0.817420000000000     -9.864150000000000      1.535320000000000
C      -1.585170000000000    -10.531079999999999      2.082990000000000
N      -2.227630000000000     -9.323150000000000      1.559140000000000
C      -2.529360000000000     -8.209339999999999      2.521980000000000
H       2.423470000000000    -10.042759999999999      4.320990000000000
H       2.823300000000000     -9.385610000000000      1.762210000000000
H      -0.161030000000000    -10.755269999999999      4.532450000000000
H      -2.174530000000000    -10.978859999999999      2.904940000000000
H      -1.576790000000000    -11.271290000000000      1.280900000000000
C      -1.271830000000000     -7.341490000000000      2.711670000000000
C      -3.611770000000000     -7.270350000000000      1.963040000000000
C      -3.022540000000000     -8.711449999999999      3.897700000000000
H      -0.940670000000000     -6.925950000000000      1.739010000000000
H      -1.478740000000000     -6.486920000000000      3.387840000000000
H      -0.437570000000000     -7.903830000000000      3.154600000000000
H      -4.571550000000000     -7.800710000000000      1.849560000000000
H      -3.800000000000000     -6.424450000000000      2.664040000000000
H      -3.295430000000000     -6.823070000000000      0.999220000000000
H      -3.960900000000000     -9.287290000000000      3.795280000000000
H      -2.262290000000000     -9.338730000000000      4.400970000000000
H      -3.225520000000000     -7.853110000000000      4.573730000000000

-C 0
6-31g(d,p)
****
-H 0
6-31g(d,p)
****
-Mg 0
6-31g(d,p)
****
-N 0
6-31+g(d,p)
****
-Na 0
6-31g(d,p)
****
-O 0
6-31+g(d,p)
****


