%chk=lowest10_c1_a1_speciation7_speciationDFT66b_rank06_E208.44.chk
%nprocshared=20
%mem=40GB
#p opt=loose PM7/gen scf=xqc 

lowest10_c1_a1_speciation7_speciationDFT66b_rank06_E208.44 DFT input

0 1
Na      0.865680000000000      1.119010000000000     -0.702750000000000
C      -2.304700000000000      1.247290000000000     -0.602840000000000
C      -1.497730000000000      1.356070000000000      1.599410000000000
O      -1.309160000000000      0.815940000000000      0.305110000000000
C      -1.908060000000000      2.559300000000000     -1.275730000000000
C      -2.378690000000000      0.451310000000000      2.458750000000000
H      -2.404810000000000      0.471800000000000     -1.391730000000000
H      -3.305940000000000      1.333830000000000     -0.125930000000000
H      -0.500210000000000      1.434040000000000      2.082920000000000
H      -1.910910000000000      2.387830000000000      1.573690000000000
H      -1.913750000000000     -0.549990000000000      2.577720000000000
H      -2.498960000000000      0.906460000000000      3.464480000000000
H      -3.383280000000000      0.332440000000000      2.003650000000000
H      -0.952700000000000      2.438330000000000     -1.828780000000000
H      -2.700110000000000      2.858340000000000     -1.993550000000000
H      -1.791560000000000      3.367540000000000     -0.525800000000000
C       1.306700000000000      4.129880000000000      0.554810000000000
C       3.273140000000000      3.392490000000000     -0.579790000000000
O       1.984130000000000      3.068670000000000     -0.092050000000000
C       1.010260000000000      5.319250000000000     -0.358080000000000
C       4.260400000000000      3.788250000000000      0.517080000000000
H       0.325590000000000      3.721800000000000      0.876770000000000
H       1.821040000000000      4.438560000000000      1.487720000000000
H       3.669740000000000      2.466140000000000     -1.048780000000000
H       3.230760000000000      4.144600000000000     -1.394610000000000
H       4.283270000000000      3.010210000000000      1.309090000000000
H       5.275070000000000      3.885550000000000      0.077520000000000
H       3.986470000000000      4.766990000000000      0.959790000000000
H       0.477230000000000      4.979440000000000     -1.271080000000000
H       0.366630000000000      6.042620000000000      0.185400000000000
H       1.945030000000000      5.843260000000000     -0.641910000000000
Na     -1.015000000000000     -1.517010000000000      0.520500000000000
C       1.604990000000000     -1.750070000000000     -1.428920000000000
C       2.241240000000000     -1.385840000000000      0.798390000000000
O       1.252620000000000     -1.172040000000000     -0.188930000000000
C       0.363820000000000     -1.805110000000000     -2.315070000000000
C       3.421860000000000     -0.426080000000000      0.653960000000000
H       2.362760000000000     -1.118810000000000     -1.939530000000000
H       1.980060000000000     -2.792100000000000     -1.316880000000000
H       1.766480000000000     -1.186710000000000      1.783390000000000
H       2.581330000000000     -2.443750000000000      0.828570000000000
H       3.072660000000000      0.626010000000000      0.700540000000000
H       4.135220000000000     -0.595760000000000      1.487230000000000
H       3.956340000000000     -0.595470000000000     -0.302800000000000
H      -0.069600000000000     -0.789110000000000     -2.437310000000000
H       0.629830000000000     -2.201960000000000     -3.317460000000000
H      -0.403770000000000     -2.468790000000000     -1.864600000000000
C      -1.468920000000000     -4.783500000000000      0.446240000000000
C      -3.308520000000000     -3.696810000000000     -0.462580000000000
O      -2.010650000000000     -3.544460000000000      0.058330000000000
C      -0.077530000000000     -4.531520000000000      1.016500000000000
C      -3.807740000000000     -2.321410000000000     -0.891040000000000
H      -2.087580000000000     -5.257910000000000      1.240870000000000
H      -1.365260000000000     -5.459770000000000     -0.431540000000000
H      -3.302250000000000     -4.356030000000000     -1.359550000000000
H      -4.001800000000000     -4.091580000000000      0.313580000000000
H      -3.134340000000000     -1.899880000000000     -1.667910000000000
H      -4.833680000000000     -2.394350000000000     -1.307800000000000
H      -3.821960000000000     -1.631250000000000     -0.019510000000000
H      -0.140870000000000     -3.858920000000000      1.899320000000000
H       0.394580000000000     -5.487190000000000      1.324700000000000
H       0.562900000000000     -4.049210000000000      0.249500000000000
Mg      9.001700000000000     -6.493450000000000      1.103260000000000
C       8.777790000000000     -7.864270000000000      3.361180000000000
C       7.096400000000000     -8.541210000000000      4.829010000000000
O       7.410790000000000     -8.202439999999999      3.497980000000000
C       9.701020000000000     -9.053500000000000      3.405230000000000
C       5.623350000000000     -8.248980000000000      5.090100000000000
H       7.357990000000000     -5.857190000000000      3.697600000000000
H       9.115280000000000     -7.050210000000000      4.036160000000000
H       7.275880000000000     -9.626480000000001      4.970150000000000
H       7.683040000000000     -7.957720000000000      5.573130000000000
H       4.985070000000000     -8.802230000000000      4.368930000000000
H       5.361680000000000     -8.566530000000000      6.121130000000000
H       5.414540000000000     -7.162830000000000      4.992910000000000
H       9.362120000000001     -9.813210000000000      2.681490000000000
H      10.720590000000000     -8.707910000000000      3.139320000000000
H       9.702769999999999     -9.479870000000000      4.425570000000000
H      11.339960000000000     -5.189520000000000      1.231650000000000
C      11.849340000000000     -6.395390000000000     -0.508570000000000
C      11.175620000000000     -6.219520000000000      0.864720000000000
C      11.227819999999999     -5.526400000000000     -1.609780000000000
H      12.924670000000001     -6.131250000000000     -0.403290000000000
H      11.801310000000001     -7.456160000000000     -0.796890000000000
H      10.151280000000000     -5.773030000000000     -1.715320000000000
H      11.338699999999999     -4.458180000000000     -1.336860000000000
C      11.909950000000000     -5.730800000000000     -2.965480000000000
H      11.651470000000000     -6.931600000000000      1.572180000000000
H      12.991450000000000     -5.486910000000000     -2.900810000000000
H      11.794950000000000     -6.776040000000000     -3.318420000000000
H      11.445779999999999     -5.060300000000000     -3.720710000000000
C       8.655260000000000     -3.703780000000000      0.368500000000000
C       7.992810000000000     -2.507680000000000      0.458550000000000
C       6.941170000000000     -2.712850000000000      1.317430000000000
C       7.013890000000000     -4.025240000000000      1.731010000000000
N       8.074220000000000     -4.634900000000000      1.127980000000000
C       6.069240000000000     -4.620650000000000      2.734490000000000
N       6.747490000000000     -5.072670000000000      3.956490000000000
C       7.517280000000000     -4.114820000000000      4.790820000000000
H       8.260260000000001     -1.593420000000000     -0.043730000000000
H       9.534090000000001     -3.888380000000000     -0.218540000000000
H       6.213380000000000     -1.977610000000000      1.629500000000000
H       5.276130000000000     -3.893220000000000      3.006640000000000
H       5.528520000000000     -5.477270000000000      2.287350000000000
C       6.696980000000000     -2.844270000000000      5.068880000000000
C       7.815020000000000     -4.813830000000000      6.132220000000000
C       8.881410000000001     -3.741660000000000      4.156350000000000
H       5.716950000000000     -3.113490000000000      5.517660000000000
H       7.240870000000000     -2.171030000000000      5.764000000000000
H       6.514650000000000     -2.281030000000000      4.131450000000000
H       8.414949999999999     -5.733710000000000      5.968900000000000
H       8.397530000000000     -4.148990000000000      6.806460000000000
H       6.872540000000000     -5.101020000000000      6.644580000000000
H       9.469270000000000     -4.653060000000000      3.913400000000000
H       8.779400000000001     -3.136970000000000      3.242560000000000
H       9.479160000000000     -3.119400000000000      4.853760000000000
Mg      8.690120000000000     -7.619170000000000     -2.322930000000000
H       9.038420000000000     -5.806590000000000     -4.206590000000000
C       6.925440000000000     -5.598220000000000     -3.748660000000000
C       8.149240000000001     -6.443730000000000     -4.021480000000000
C       7.124250000000000     -4.793530000000000     -2.466670000000000
H       6.749880000000000     -4.923650000000000     -4.612430000000000
H       6.047780000000000     -6.266120000000000     -3.641110000000000
H       7.354340000000000     -5.485260000000000     -1.633890000000000
H       7.987060000000000     -4.102760000000000     -2.578370000000000
C       5.866010000000000     -4.001420000000000     -2.128480000000000
H       7.988580000000000     -7.102880000000000     -4.900770000000000
H       5.636540000000000     -3.283050000000000     -2.942240000000000
H       5.003510000000000     -4.687060000000000     -1.984840000000000
H       6.015190000000000     -3.436040000000000     -1.190560000000000
C       9.193110000000001    -11.147770000000000     -3.426820000000000
C      10.254080000000000    -10.294359999999999     -3.622550000000000
C      10.433070000000001     -9.590310000000001     -2.451710000000000
C       9.499520000000000     -9.984320000000000     -1.577940000000000
N       8.687720000000001    -10.992229999999999     -2.128420000000000
C       9.230530000000000     -9.343380000000000     -0.248270000000000
N       8.191960000000000     -8.305999999999999     -0.403860000000000
C       6.754760000000000     -8.648289999999999     -0.248010000000000
H      10.814660000000000    -10.174490000000000     -4.539790000000000
H       8.784689999999999    -11.822640000000000     -4.161910000000000
H      11.150810000000000     -8.801170000000001     -2.317960000000000
H      10.152590000000000     -8.822139999999999      0.081890000000000
H       9.034599999999999    -10.097239999999999      0.529990000000000
C       6.511930000000000     -9.884060000000000      0.643700000000000
C       6.046960000000000     -7.456340000000000      0.423580000000000
C       6.120070000000000     -8.868660000000000     -1.621380000000000
H       6.977690000000000     -9.745880000000000      1.639130000000000
H       5.423750000000000    -10.042260000000001      0.799400000000000
H       6.924550000000000    -10.800920000000000      0.178430000000000
H       6.201510000000000     -6.510470000000000     -0.123760000000000
H       4.949990000000000     -7.624160000000000      0.492160000000000
H       6.437810000000000     -7.314960000000000      1.445720000000000
H       6.204000000000000     -7.950130000000000     -2.226080000000000
H       6.615490000000000     -9.689330000000000     -2.164000000000000
H       5.043550000000000     -9.118630000000000     -1.517230000000000

-C 0
6-31g(d,p)
****
-H 0
6-31g(d,p)
****
-Mg 0
6-31g(d,p)
****
-N 0
6-31+g(d,p)
****
-Na 0
6-31g(d,p)
****
-O 0
6-31+g(d,p)
****


