%chk=speciationDFT2.chk
%nprocshared=32
%mem=64GB
#p opt=loose wb97xd/gen scf=xqc freq

speciation study

0 1
Mg -0.818250 -0.649570 0.158763
H -2.672889 -2.458616 0.244553
C -3.677253 -0.645764 0.933080
C -2.521600 -1.619498 0.912784
C -3.682899 0.370353 -0.230769
H -4.635851 -1.199016 0.924268
H -3.667128 -0.079454 1.885746
H -4.547115 1.047869 -0.119398
H -2.787385 1.036492 -0.168569
C -3.732680 -0.311239 -1.599916
H -2.244203 -1.979048 1.894947
H -2.874912 -0.987432 -1.738815
H -4.637930 -0.911939 -1.712391
H -3.704382 0.424827 -2.408694
C -0.174141 2.809363 0.772683
C 1.071394 3.451023 0.669692
C 1.871186 2.649395 -0.186826
C 1.068585 1.560726 -0.568019
N -0.186903 1.670771 -0.002436
C 1.404955 0.392261 -1.454495
N 1.128640 -0.934065 -0.898186
C 2.078828 -1.460404 0.052690
H 1.364431 4.357510 1.133364
H -1.034867 3.106356 1.325565
H 2.872486 2.838957 -0.474164
H 2.458066 0.486853 -1.797059
H 0.772121 0.452728 -2.377373
C 2.113638 -0.710311 1.421569
C 1.641388 -2.933934 0.328461
C 3.534234 -1.489041 -0.500168
H 1.172685 -0.820502 1.968401
H 2.919783 -1.066183 2.057059
H 2.259814 0.366163 1.242140
H 1.646734 -3.494525 -0.610234
H 2.309630 -3.417071 1.037229
H 0.621198 -2.973756 0.724803
H 3.533338 -1.902402 -1.511514
H 3.941487 -0.476184 -0.551825
H 4.187918 -2.091323 0.126565

-H 0
6-31g(d,p)
****
-C 0
6-31g(d,p)
****
-Mg 0
6-31g(d,p)
****
-N 0
6-31+g(d,p)
****


