%chk=speciationDFT72.chk
%nprocshared=32
%mem=64GB
#p opt=loose wb97xd/gen scf=xqc freq

speciation study

0 1
Mg 1.642391 -0.279853 -0.096528
C 4.214652 0.068865 1.612081
C 2.915501 2.079537 1.809723
O 3.226923 0.919214 1.046417
C 3.575492 -0.903939 2.590782
C 3.953338 3.158356 1.529697
H 4.615041 -0.447934 0.710562
H 5.016182 0.666819 2.071360
H 1.907822 2.368927 1.417347
H 2.839679 1.835702 2.880227
H 4.106968 3.272223 0.446669
H 3.617722 4.129178 1.910305
H 4.922336 2.930575 1.978203
H 2.750149 -1.468273 2.113059
H 4.297642 -1.641710 2.950297
H 3.151964 -0.391358 3.460601
H 3.516012 -2.085359 -0.399348
C 3.966604 -0.588138 -1.926315
C 3.030728 -1.478201 -1.151461
C 5.108286 -1.407647 -2.568418
H 3.417614 -0.047630 -2.722295
H 4.404813 0.196978 -1.279760
H 5.652671 -1.960507 -1.784484
H 4.675999 -2.175140 -3.234052
C 6.070456 -0.508771 -3.348369
H 2.418538 -2.114355 -1.782082
H 5.545650 0.028109 -4.146170
H 6.528359 0.240342 -2.694808
H 6.874636 -1.087798 -3.808882
C -3.650734 -3.369084 -0.780411
C -3.206714 -2.547576 -1.815262
C -1.846475 -2.199385 -1.513001
C -1.574979 -2.866242 -0.260378
N -2.654470 -3.564597 0.170952
C -0.309249 -2.715954 0.538447
N -0.139975 -1.316724 0.946688
C -0.509073 -0.960950 2.302412
H -3.745355 -2.248821 -2.680852
H -4.607744 -3.824440 -0.650453
H -1.113055 -1.889739 -2.234405
H 0.565932 -2.997878 -0.095596
H -0.317651 -3.423936 1.394193
C 0.140247 -1.881050 3.378294
C -0.004079 0.488720 2.520637
C -2.044272 -0.980672 2.525194
H 1.184734 -2.082329 3.138400
H 0.089023 -1.427449 4.366706
H -0.380633 -2.841925 3.424915
H -0.333239 1.148916 1.693011
H -0.414495 0.918556 3.434808
H 1.085412 0.515132 2.586246
H -2.536398 -0.094569 2.081813
H -2.489237 -1.883796 2.080515
H -2.301254 -0.973419 3.582654
Mg -1.822474 -0.192022 -0.403835
C 1.312740 2.114151 -1.044134
C 0.724411 1.231452 -1.976597
C -0.686838 1.406320 -1.850638
C -0.864872 2.370121 -0.809668
N 0.337971 2.800757 -0.330375
C -2.172910 2.805659 -0.205859
N -2.987555 1.646091 0.160432
C -4.296904 1.552125 -0.434126
H 1.215471 0.659498 -2.736363
H 2.351573 2.358818 -0.922038
H -1.416907 1.090260 -2.572409
H -1.974760 3.379991 0.732343
H -2.676707 3.513146 -0.897776
C -4.292750 1.413292 -1.991476
C -4.957375 0.273715 0.156125
C -5.189767 2.775724 -0.070868
H -3.818621 0.475344 -2.298884
H -5.306007 1.418292 -2.388932
H -3.738403 2.237244 -2.444162
H -4.884813 0.290316 1.248964
H -6.007072 0.205386 -0.124984
H -4.464541 -0.645711 -0.192657
H -5.156896 2.937344 1.010424
H -4.823001 3.683345 -0.551344
H -6.224121 2.621167 -0.370204

-C 0
6-31g(d,p)
****
-Mg 0
6-31g(d,p)
****
-N 0
6-31+g(d,p)
****
-H 0
6-31g(d,p)
****
-O 0
6-31+g(d,p)
****


