%chk=speciationDFT23.chk
%nprocshared=32
%mem=64GB
#p opt=loose wb97xd/gen scf=xqc freq

speciation study

0 1
Mg 2.164349 0.452295 -0.070294
H 3.528279 1.276004 1.992296
C 2.422902 3.048175 1.376013
C 3.250911 1.815591 1.093833
C 1.088136 2.713938 2.064048
H 2.996227 3.745402 2.018120
H 2.228709 3.607762 0.440809
H 0.423699 2.119089 1.382205
H 1.267319 2.076877 2.946205
C 0.347448 3.989035 2.477103
H 4.143574 2.031304 0.517511
H 0.922438 4.578824 3.193251
H 0.141944 4.619683 1.605488
H -0.618931 3.744121 2.931773
C -4.652432 -1.687253 -0.191289
C -3.669208 -2.391815 0.489244
C -2.788583 -1.415319 1.081106
C -3.347143 -0.136624 0.664235
N -4.454854 -0.307739 -0.085839
C -2.665070 1.192747 0.878667
N -1.387984 1.250896 0.156454
C -1.410633 1.875626 -1.149791
H -3.578636 -3.444800 0.596515
H -5.480534 -2.059152 -0.754550
H -2.251708 -1.581416 1.998448
H -2.418847 1.313497 1.959912
H -3.356453 2.020216 0.618273
C -1.979061 3.320998 -1.111241
C 0.072612 1.958870 -1.618627
C -2.197902 1.067989 -2.220307
H -1.524654 3.875157 -0.285087
H -1.784176 3.854130 -2.040143
H -3.060106 3.309049 -0.951062
H 0.454109 0.949488 -1.859718
H 0.160695 2.536672 -2.540167
H 0.676453 2.466626 -0.851968
H -1.741774 0.087051 -2.415896
H -3.228534 0.894094 -1.880004
H -2.242224 1.595153 -3.171541
Mg -0.941520 -0.948468 -0.116503
C 1.510193 -0.425029 -3.710370
C 2.718644 0.032797 -3.177770
C 2.952894 -0.717077 -1.981661
C 1.829071 -1.608612 -1.888160
N 0.960688 -1.422805 -2.918543
C 1.556165 -2.544287 -0.751153
N 1.147317 -1.678095 0.363663
C 1.291871 -2.182160 1.711187
H 3.362652 0.774066 -3.582464
H 1.006341 -0.103624 -4.596033
H 3.903645 -0.830766 -1.499720
H 2.465071 -3.139674 -0.519132
H 0.757145 -3.277586 -1.010490
C 2.765585 -2.549058 2.041391
C 0.860323 -1.038354 2.665227
C 0.400007 -3.426045 1.963889
H 3.434793 -1.728190 1.758955
H 2.896054 -2.743093 3.105530
H 3.086759 -3.439354 1.497982
H -0.134817 -0.638523 2.413874
H 0.823518 -1.378577 3.699781
H 1.564479 -0.195647 2.613987
H -0.649679 -3.209011 1.723968
H 0.711468 -4.264383 1.337334
H 0.445208 -3.746988 3.003743

-H 0
6-31g(d,p)
****
-C 0
6-31g(d,p)
****
-Mg 0
6-31g(d,p)
****
-N 0
6-31+g(d,p)
****


