%chk=speciationDFT131.chk
%nprocshared=32
%mem=64GB
#p opt=loose wb97xd/gen scf=xqc freq

speciation study

0 1
Mg -0.629327 0.903552 0.089807
C -0.505611 -0.202026 -1.737405
C 1.398544 0.125477 -3.197893
O 0.867759 0.046054 -1.859382
C -0.904378 -1.641570 -1.883098
C 1.282714 1.581005 -3.621795
H -2.903589 -1.167960 -0.135518
H -1.077555 0.454608 -2.411667
H 2.456569 -0.187514 -3.115101
H 0.862568 -0.564418 -3.864223
H 0.243676 1.871107 -3.805154
H 1.645181 2.242422 -2.804042
H 1.872673 1.801803 -4.510599
H -0.513267 -2.068929 -2.817347
H -0.545808 -2.285151 -1.067181
H -1.995864 -1.745911 -1.918078
H 1.442634 -3.214860 -2.177745
C 1.745492 -4.136676 -0.232587
C 2.108860 -3.161364 -1.326551
C 2.847914 -4.302963 0.834755
H 0.793656 -3.852045 0.252647
H 1.551672 -5.132806 -0.682710
H 2.799453 -5.323710 1.253594
H 3.839995 -4.222545 0.351738
C 2.745807 -3.283579 1.968417
H 3.131090 -3.262976 -1.671002
H 2.917158 -2.248299 1.602646
H 1.770211 -3.312037 2.456020
H 3.509939 -3.459380 2.729975
C 0.979946 3.602174 -0.781094
C 2.272954 4.098738 -1.005166
C 3.159859 3.248558 -0.294998
C 2.369403 2.264507 0.322263
N 1.039173 2.497843 0.040740
C 2.757009 1.179735 1.282464
N 3.324650 -0.056208 0.773831
C 4.650814 -0.003917 0.201216
H 2.545170 4.947584 -1.579379
H 0.043703 3.974407 -1.135419
H 4.214446 3.350693 -0.243177
H 3.430034 1.632088 2.051676
H 1.837407 0.857923 1.847785
C 5.623415 0.952994 0.942950
C 5.247495 -1.441088 0.306766
C 4.645891 0.389706 -1.312881
H 5.609430 0.745801 2.015504
H 6.644468 0.839551 0.581441
H 5.323009 1.995250 0.796682
H 4.594851 -2.174528 -0.181705
H 6.231419 -1.492838 -0.154520
H 5.329200 -1.731982 1.356704
H 4.342301 -0.449100 -1.943070
H 3.940829 1.220784 -1.467584
H 5.627543 0.718256 -1.646705
Mg 1.998134 -1.155909 -0.655632
C -1.232115 1.387731 2.971940
C -0.110601 -0.735292 2.568999
O -0.953146 0.311694 2.081578
C -0.026975 2.268167 3.212806
C -0.619023 -1.964193 1.833676
H -2.042910 1.917016 2.405323
H -1.649777 0.963484 3.899040
H 0.943738 -0.475020 2.311473
H -0.213231 -0.822125 3.660218
H -0.428633 -1.906730 0.747870
H -0.145003 -2.878692 2.202363
H -1.709538 -2.083955 1.949181
H 0.401148 2.638304 2.254654
H -0.292953 3.162484 3.784711
H 0.775824 1.751551 3.745277
C -3.270262 2.879746 -0.339248
C -4.652557 3.088657 -0.181031
C -5.160553 1.936369 0.464162
C -4.061592 1.078924 0.666781
N -2.911594 1.659016 0.179729
C -4.062641 -0.269090 1.297066
N -3.772779 -1.390715 0.368736
C -4.830233 -1.733042 -0.617082
H -5.209767 3.939913 -0.480543
H -2.540213 3.525087 -0.780004
H -6.168210 1.758008 0.740267
H -3.273454 -0.326992 2.087462
H -5.023374 -0.455024 1.819265
C -4.849113 -0.770888 -1.822316
C -4.484944 -3.160558 -1.115117
C -6.225638 -1.759107 0.032972
H -3.897519 -0.770501 -2.359791
H -5.642669 -1.019206 -2.526038
H -5.011803 0.267082 -1.480637
H -4.452226 -3.857530 -0.271348
H -5.227506 -3.515382 -1.830827
H -3.504074 -3.188203 -1.597813
H -6.214560 -2.343961 0.957896
H -6.561557 -0.742964 0.276376
H -6.963969 -2.197975 -0.641612

-C 0
6-31g(d,p)
****
-Mg 0
6-31g(d,p)
****
-N 0
6-31+g(d,p)
****
-H 0
6-31g(d,p)
****
-O 0
6-31+g(d,p)
****


