%chk=speciationDFT132.chk
%nprocshared=32
%mem=64GB
#p opt=loose wb97xd/gen scf=xqc freq

speciation study

0 1
Mg -1.660934 0.837066 0.196901
C -1.950979 -1.214638 -2.014093
C -3.176743 0.751835 -2.591582
O -2.739020 -0.127794 -1.547796
C -0.669448 -0.751885 -2.690699
C -4.169262 1.688443 -1.931485
H -1.765619 -1.769675 -1.060875
H -2.570481 -1.842222 -2.676411
H -2.297847 1.291835 -2.991180
H -3.642805 0.146012 -3.386283
H -3.724283 2.221628 -1.070868
H -4.546064 2.438975 -2.627493
H -5.031250 1.138191 -1.517486
H -0.113566 -0.033941 -2.048025
H -0.007213 -1.596465 -2.935392
H -0.863123 -0.231547 -3.632317
H -0.224964 -4.619407 -0.564828
C 1.312076 -4.692199 -2.105881
C 0.159782 -4.028642 -1.388727
C 2.639839 -4.699388 -1.319176
H 1.044354 -5.738741 -2.352330
H 1.484617 -4.192841 -3.079682
H 3.413714 -5.211599 -1.918680
H 3.021230 -3.661779 -1.185661
C 2.511083 -5.380170 0.043682
H -0.655599 -3.770361 -2.049347
H 3.468032 -5.383201 0.575694
H 1.785114 -4.856496 0.680907
H 2.170020 -6.413740 -0.057508
C -6.358420 -0.455453 0.453311
C -6.732482 0.880948 0.461478
C -5.622776 1.643731 0.924428
C -4.567776 0.754999 1.198528
N -5.035621 -0.533216 0.914032
C -3.255425 0.986991 1.701540
N 2.515891 3.423151 0.286357
C 3.970229 3.174143 0.431580
H -7.679189 1.278930 0.179605
H -6.907889 -1.323442 0.178959
H -5.601402 2.695773 1.057385
H -3.054182 1.998892 2.037997
H -2.863665 0.257214 2.401150
C 4.171540 2.519906 1.814116
C 4.563824 2.254945 -0.651130
C 4.701683 4.538315 0.401672
H 3.786771 1.486836 1.820553
H 5.228431 2.463185 2.078890
H 3.646266 3.077142 2.594693
H 4.487802 2.687775 -1.647999
H 5.613535 2.032558 -0.449701
H 4.037158 1.284678 -0.666114
H 4.655246 4.997329 -0.587676
H 4.230620 5.228376 1.108865
H 5.751618 4.424118 0.675413
Mg 0.849091 -2.254850 -0.487019
C 1.363705 2.744337 -1.825148
C -0.817517 2.498567 -0.853879
O 0.485412 2.032002 -0.969389
C 2.069378 3.875810 -1.045597
C -0.966147 3.737004 0.005386
H 2.086321 1.968475 -2.134330
H 0.838185 3.132022 -2.706731
H -1.296501 2.604958 -1.827706
H -4.503867 -1.365271 0.978281
H -0.724218 4.650969 -0.544388
H -1.986868 3.840729 0.385653
H -0.282257 3.687157 0.865098
H 1.351555 4.706134 -0.862723
H 1.967554 2.584953 0.544845
H 2.895967 4.296060 -1.645320
C 4.350969 -1.493028 0.465324
C 3.831654 -1.323213 -0.818090
C 2.550891 -0.695349 -0.663790
C 2.398793 -0.526056 0.760861
N 3.476254 -1.011845 1.431441
C 1.174728 0.026516 1.433246
N 0.004810 -0.821951 1.135685
C -0.446667 -1.665014 2.227853
H 4.291661 -1.572937 -1.741895
H 5.281949 -1.927558 0.757854
H 2.041601 -0.127466 -1.419829
H 0.961062 1.046523 1.019272
H 1.361492 0.161676 2.518432
C -0.759021 -0.863341 3.520367
C -1.748487 -2.362342 1.736325
C 0.580244 -2.774976 2.604703
H -1.253637 0.084551 3.272547
H -1.405153 -1.421739 4.195331
H 0.158812 -0.618782 4.061410
H -1.545019 -3.031772 0.893683
H -2.197588 -2.954338 2.532886
H -2.477795 -1.613370 1.404555
H 0.619015 -3.573105 1.857814
H 1.589924 -2.342058 2.686870
H 0.338450 -3.237801 3.559697

-C 0
6-31g(d,p)
****
-Mg 0
6-31g(d,p)
****
-N 0
6-31+g(d,p)
****
-H 0
6-31g(d,p)
****
-O 0
6-31+g(d,p)
****


