%chk=speciationDFT38.chk
%nprocshared=32
%mem=64GB
#p opt=loose wb97xd/gen scf=xqc freq

speciation study

0 1
Mg -0.049690 0.642764 0.017972
C -0.896753 -0.358458 2.732037
C -1.775315 -1.608007 0.849010
O -1.427616 -0.344408 1.408569
C 0.343812 -1.213023 2.874468
C -2.932991 -2.245413 1.604193
H -0.683175 0.721894 2.884360
H -1.706362 -0.669872 3.412383
H -2.069148 -1.314406 -0.188958
H -0.880965 -2.262326 0.789838
H -3.344719 -3.083623 1.030965
H -3.738620 -1.521915 1.769418
H -2.618710 -2.630567 2.577874
H 1.053002 -1.042938 2.012921
H 0.124216 -2.281718 2.871137
H 0.909095 -0.972234 3.774045
H -1.273342 2.483903 1.377918
C -1.626482 3.085416 -0.688788
C -0.750867 2.598689 0.437895
C -2.723996 2.086084 -1.112620
H -2.109636 4.040997 -0.405202
H -1.001003 3.316446 -1.574421
H -3.275325 2.491496 -1.978374
H -2.259250 1.140455 -1.471407
C -3.697502 1.777684 0.026541
H 0.142646 3.191233 0.574426
H -3.164510 1.301829 0.863402
H -4.162589 2.687231 0.411770
H -4.487652 1.096339 -0.296363
C -1.213790 -2.190975 -2.354429
C -1.143577 -0.841237 -2.714736
C 0.089743 -0.345020 -2.193171
C 0.692847 -1.462386 -1.530986
N -0.096900 -2.572277 -1.626588
C 1.992488 -1.466660 -0.773387
N 2.000623 -0.417879 0.249107
C 3.072056 0.534083 0.192625
H -1.843572 -0.290721 -3.291237
H -1.978825 -2.899819 -2.575823
H 0.566216 0.569056 -2.485007
H 2.830713 -1.396374 -1.499077
H 2.114111 -2.446665 -0.252168
C 3.054383 1.452122 -1.074541
C 2.925237 1.449203 1.446010
C 4.480680 -0.139637 0.259757
H 2.149438 2.068268 -1.085588
H 3.917481 2.111387 -1.101909
H 3.049311 0.838179 -1.978046
H 2.932765 0.836077 2.350577
H 3.732230 2.175826 1.501324
H 1.972041 1.990416 1.422248
H 4.500994 -0.848860 1.090231
H 4.685773 -0.695443 -0.655985
H 5.268681 0.594829 0.403595

-C 0
6-31g(d,p)
****
-Mg 0
6-31g(d,p)
****
-N 0
6-31+g(d,p)
****
-H 0
6-31g(d,p)
****
-O 0
6-31+g(d,p)
****


