%chk=speciationDFT82.chk
%nprocshared=32
%mem=64GB
#p opt=loose wb97xd/gen scf=xqc freq

speciation study

0 1
Mg 1.296284 -0.220461 0.263056
C -0.325107 1.996104 1.453791
C -0.415215 -0.037449 2.793080
O -0.411905 0.556052 1.491501
C 0.842196 2.536346 2.239436
C -1.574461 0.467271 3.634600
H -0.196750 2.165630 0.348272
H -1.300401 2.393628 1.780115
H -0.510231 -1.119921 2.544267
H 0.566058 0.159346 3.266542
H -2.516733 0.478386 3.060175
H -1.744195 -0.179716 4.501307
H -1.404955 1.482518 4.006485
H 1.797266 2.004699 1.978316
H 1.038980 3.582136 1.974009
H 0.710587 2.478972 3.318768
H -3.271147 -2.444311 0.810514
C -4.621526 -1.027223 1.751852
C -3.243729 -1.548874 1.423854
C -5.390968 -0.468649 0.538213
H -5.225261 -1.836524 2.210023
H -4.558084 -0.236064 2.524144
H -6.399273 -0.151650 0.859134
H -4.895582 0.453543 0.167368
C -5.506241 -1.486324 -0.597937
H -2.648500 -1.753216 2.303558
H -4.515033 -1.746233 -0.995002
H -5.970278 -2.414518 -0.252960
H -6.103221 -1.091960 -1.425383
C -2.602367 3.421139 -0.930150
C -3.574505 2.420098 -0.968837
C -2.935972 1.247938 -1.489078
C -1.577420 1.644817 -1.730087
N -1.382494 2.949193 -1.391201
C -0.457967 0.763495 -2.204607
N -0.369468 -0.401337 -1.315638
C -0.325033 -1.713877 -1.936210
H -4.599403 2.506889 -0.704648
H -2.700517 4.435281 -0.611206
H -3.446215 0.412652 -1.929109
H 0.506840 1.328668 -2.193736
H -0.631215 0.492699 -3.268403
C 1.083175 -2.008108 -2.513839
C -0.638568 -2.753813 -0.827612
C -1.378509 -1.899198 -3.061721
H 1.837365 -2.087095 -1.712043
H 1.107959 -2.952429 -3.057030
H 1.402643 -1.214369 -3.193269
H -1.714623 -2.823714 -0.634967
H -0.285932 -3.747698 -1.110302
H -0.139140 -2.500627 0.121914
H -2.349812 -1.505132 -2.744945
H -1.089002 -1.371829 -3.973398
H -1.502065 -2.952418 -3.315009
Mg -2.170062 -0.159979 0.244370
C 3.266766 -3.422833 0.207333
C 2.153814 -3.200766 1.012072
C 2.290843 -1.876937 1.556192
C 3.549344 -1.400575 1.021070
N 4.120318 -2.321148 0.209377
C 4.095556 -0.015046 1.239544
N 3.189088 0.988684 0.672958
C 3.615569 1.612485 -0.560174
H 1.363288 -3.877961 1.223041
H 3.515939 -4.285411 -0.371050
H 1.841442 -1.545957 2.467863
H 5.133022 0.047905 0.849138
H 4.158369 0.187116 2.334313
C 3.661389 0.628272 -1.766995
C 2.584650 2.729773 -0.875985
C 5.016780 2.283081 -0.437805
H 2.654541 0.306866 -2.055425
H 4.132667 1.077737 -2.637928
H 4.229075 -0.271698 -1.492167
H 2.591623 3.484939 -0.086195
H 2.804924 3.215997 -1.826059
H 1.560291 2.337028 -0.932878
H 5.066473 2.864033 0.485913
H 5.807327 1.530721 -0.402990
H 5.214401 2.945326 -1.278661

-C 0
6-31g(d,p)
****
-Mg 0
6-31g(d,p)
****
-N 0
6-31+g(d,p)
****
-H 0
6-31g(d,p)
****
-O 0
6-31+g(d,p)
****


