%chk=speciationDFT37.chk
%nprocshared=32
%mem=64GB
#p opt=loose wb97xd/gen scf=xqc freq

speciation study

0 1
Mg 0.106278 -0.052485 0.555131
C -1.332214 -2.873476 -0.226951
C 0.946865 -2.555460 -0.957948
O -0.327681 -1.987744 -0.687684
C -1.069279 -3.370657 1.186721
C 0.892436 -3.485475 -2.163851
H -2.230183 -2.216229 -0.273760
H -1.453709 -3.700806 -0.943530
H 1.546509 -1.636270 -1.182176
H 1.345843 -3.046972 -0.056005
H 0.316951 -3.022501 -2.977894
H 1.896879 -3.688064 -2.547370
H 0.423873 -4.442754 -1.926951
H -0.815676 -2.529224 1.858175
H -1.945994 -3.870989 1.604036
H -0.229376 -4.070038 1.224604
H 0.987176 -0.460203 2.947552
C 2.790335 -0.578990 1.724946
C 1.352610 -0.918637 2.036393
C 2.994533 0.932799 1.517651
H 3.446375 -0.925369 2.547311
H 3.130321 -1.122283 0.823141
H 2.504330 1.267032 0.571324
H 2.489690 1.497033 2.322054
C 4.482084 1.293416 1.463669
H 1.157398 -1.978573 2.044100
H 4.987214 1.054789 2.401757
H 4.986495 0.750093 0.658873
H 4.612355 2.363529 1.269411
C 2.147310 2.063113 -1.878211
C 1.619367 0.809875 -2.202633
C 0.285222 0.787158 -1.687687
C 0.103398 2.066310 -1.062825
N 1.227498 2.830808 -1.182267
C -1.107613 2.536812 -0.298848
N -1.556525 1.524226 0.660828
C -2.874845 1.000115 0.478784
H 2.090028 0.035219 -2.751473
H 3.116677 2.452105 -2.094765
H -0.481752 0.102358 -1.986296
H -1.889847 2.855663 -1.018381
H -0.833487 3.445095 0.292716
C -3.141519 0.317119 -0.905447
C -3.088671 -0.069334 1.594446
C -3.976225 2.096420 0.660657
H -2.372550 -0.432284 -1.110748
H -4.119526 -0.152542 -0.938838
H -3.080881 1.060269 -1.703513
H -2.877683 0.386235 2.568160
H -4.107336 -0.447982 1.592587
H -2.399238 -0.908710 1.471604
H -3.812122 2.612975 1.609303
H -3.907920 2.840878 -0.133534
H -4.974298 1.668413 0.655293

-C 0
6-31g(d,p)
****
-Mg 0
6-31g(d,p)
****
-N 0
6-31+g(d,p)
****
-H 0
6-31g(d,p)
****
-O 0
6-31+g(d,p)
****


