%chk=speciationDFT0.chk
%nprocshared=32
%mem=64GB
#p opt=loose wb97xd/gen scf=xqc freq

speciation study

0 1
Mg -0.461106 0.783853 -0.346241
H -2.076327 2.451007 -1.527230
C -3.370222 0.836559 -0.828094
C -2.123268 1.370509 -1.491698
C -3.438122 1.155769 0.685237
H -4.267520 1.258615 -1.320634
H -3.443256 -0.257689 -0.980392
H -2.769155 2.007435 0.919388
H -4.453048 1.500064 0.945086
C -3.070974 -0.051245 1.551034
H -1.949041 0.960818 -2.477892
H -2.077991 -0.477352 1.288794
H -3.021036 0.213604 2.609194
H -3.791789 -0.862676 1.434892
C 3.036840 2.131404 -0.545049
C 1.928634 2.827634 -0.065310
C 1.209450 1.922104 0.784135
C 1.971334 0.696369 0.735713
N 3.064183 0.828101 -0.058122
C 1.539794 -0.607736 1.356700
N 0.294456 -1.084887 0.744355
C 0.421377 -2.141151 -0.229408
H 1.664356 3.837063 -0.257093
H 3.806543 2.470172 -1.201668
H 0.519749 2.211917 1.552523
H 2.369138 -1.342641 1.310400
H 1.317314 -0.444852 2.437326
C 1.099302 -3.418511 0.355337
C -1.026995 -2.528070 -0.656308
C 1.209630 -1.734808 -1.514612
H 0.649658 -3.656482 1.322276
H 0.982692 -4.272032 -0.308197
H 2.165939 -3.248346 0.514869
H -1.548179 -1.671612 -1.100343
H -1.021172 -3.340905 -1.378811
H -1.598298 -2.833828 0.224218
H 0.664860 -0.988473 -2.099115
H 2.171998 -1.285474 -1.227455
H 1.406688 -2.590036 -2.154921

-H 0
6-31g(d,p)
****
-C 0
6-31g(d,p)
****
-Mg 0
6-31g(d,p)
****
-N 0
6-31+g(d,p)
****


