%chk=speciationDFT3.chk
%nprocshared=32
%mem=64GB
#p opt=loose wb97xd/gen scf=xqc freq

speciation study

0 1
Mg -1.918322 0.423434 0.958073
H -4.065853 0.376981 2.460543
C -4.819311 0.084433 0.433449
C -3.930511 0.752927 1.454523
C -4.673758 -1.448551 0.461009
H -5.879003 0.348357 0.617844
H -4.594922 0.463901 -0.582744
H -3.609079 -1.740234 0.342504
H -4.978337 -1.830880 1.451289
C -5.509434 -2.104524 -0.641031
H -4.024223 1.834265 1.457753
H -6.570491 -1.864904 -0.532198
H -5.192730 -1.762348 -1.632334
H -5.408137 -3.193852 -0.618970
C -1.202616 -2.060111 1.870290
C -0.559473 -0.897248 2.379977
C 0.770293 -0.928105 1.826273
C 0.818056 -2.070903 0.990731
N -0.383082 -2.748328 1.017578
C 1.943043 -2.546464 0.110992
N 2.542033 -1.457761 -0.661115
C 3.937717 -1.183436 -0.420601
H -0.849618 -0.311410 3.233312
H -2.183271 -2.427378 2.107018
H 1.591112 -0.340533 2.202091
H 2.670699 -3.110434 0.733292
H 1.538453 -3.282307 -0.629190
C 4.833869 -2.422014 -0.715610
C 4.338465 -0.050491 -1.410860
C 4.260616 -0.695742 1.027007
H 4.574016 -2.832304 -1.695667
H 5.890579 -2.163463 -0.713734
H 4.671694 -3.208045 0.023709
H 3.870905 0.903996 -1.144402
H 5.416778 0.099933 -1.420364
H 4.010528 -0.316560 -2.421628
H 3.774155 0.263007 1.238834
H 3.901490 -1.421897 1.759832
H 5.331381 -0.562583 1.169787
Mg 1.346098 0.362650 -0.203798
C 1.377355 3.204529 2.117720
C 2.411698 2.874220 1.241061
C 1.808703 2.632445 -0.037600
C 0.399280 2.850959 0.182780
N 0.146394 3.186557 1.473907
C -0.676141 2.582764 -0.829192
N -0.786491 1.116934 -0.899732
C -1.158397 0.515464 -2.162121
H 3.451900 2.831994 1.453958
H 1.433821 3.444483 3.156709
H 2.317537 2.669114 -0.979991
H -1.645714 3.036079 -0.517800
H -0.408881 3.042346 -1.804358
C 0.038318 0.533927 -3.155972
C -1.519966 -0.960556 -1.865258
C -2.379434 1.208295 -2.820491
H 0.839463 -0.144191 -2.815510
H -0.261500 0.199165 -4.147704
H 0.459402 1.537599 -3.244752
H -2.486696 -1.046247 -1.354793
H -1.578818 -1.550507 -2.779955
H -0.752501 -1.440880 -1.227714
H -3.181951 1.333910 -2.084106
H -2.118411 2.198469 -3.197235
H -2.769305 0.621621 -3.651537

-H 0
6-31g(d,p)
****
-C 0
6-31g(d,p)
****
-Mg 0
6-31g(d,p)
****
-N 0
6-31+g(d,p)
****


