%chk=speciation17.chk
%nprocshared=16
%mem=32GB
#p opt PM7/gen scf=xqc 

 speciation study

0 1
C         -1.19323       -1.37665        0.67746
C         -2.51012       -1.32604       -0.13763
C         -3.42229       -0.21013        0.40682
C         -2.69649        1.13585        0.41399
C         -1.18009        1.09665        0.85470
N         -0.42426       -0.11777        0.42140
C         -1.49785       -1.66413        2.16813
C         -0.35432       -2.55371        0.26959
C         -1.07354        1.38481        2.38497
C         -0.50436        2.17084        0.09967
H         -0.09654       -2.39555       -0.72299
H          0.58252       -2.56050        0.81238
H         -0.86242       -3.53655        0.37791
H         -1.86645       -2.70274        2.31990
H         -0.57948       -1.49663        2.72347
H         -2.26414       -1.06297        2.65511
H          0.52342        1.86548       -0.05222
H         -0.72955        3.21054        0.40443
H         -0.76321        2.03090       -0.91259
H         -0.08327        1.13314        2.82220
H         -1.30403        2.45111        2.58360
H         -1.79926        0.85717        3.00647
H         -2.80250        1.47910       -0.61480
H         -4.34767       -0.13030       -0.20903
H         -3.05603       -2.29229       -0.08622
H         -2.26396       -1.12519       -1.20687
H         -3.77678       -0.44768        1.42029
H         -3.26759        1.91239        0.96615
Li         1.10427        0.13741       -1.29926
C          2.60226       -2.06711       -2.99239
C          2.22177       -2.33641       -4.44868
C          0.80310       -2.85313       -4.37986
C          0.44409       -2.56827       -2.93316
O          1.40457       -1.67434       -2.35388
H          2.95800       -3.00939       -2.51000
H          3.40698       -1.30886       -2.92598
H          2.16762       -1.34435       -4.94325
H          2.91683       -2.98090       -5.03051
H         -0.61854       -2.25879       -2.83155
H          0.54632       -3.54563       -2.39746
H          0.17360       -2.26583       -5.08896
H          0.69265       -3.94377       -4.58412
C          0.37430        2.74044       -3.00206
C         -1.12023        3.06930       -3.09003
C         -1.73035        1.69616       -3.32984
C         -0.54131        0.87361       -3.73726
O          0.50563        1.32630       -2.89254
H          0.85343        3.03354       -3.96928
H          0.88980        3.32678       -2.22348
H         -1.53858        3.52727       -2.16417
H         -1.28465        3.79197       -3.91268
H         -0.74102       -0.20493       -3.63198
H         -0.29138        1.06714       -4.80673
H         -1.96795        1.20530       -2.38978
H         -2.67582        1.67994       -3.90361
C          3.45508        2.46796       -0.42505
C          2.44191        3.23933        0.41708
C          2.33712        2.43096        1.77920
C          3.46303        1.33014        2.05110
C          3.82169        0.38497        0.79592
N          3.06958        0.96797       -0.32171
C          4.80928        3.16431        0.17910
C          3.58794        2.78115       -1.92865
C          5.38859        0.21399        0.63921
C          3.45231       -1.12639        0.76098
H          4.52178        2.29479       -2.29749
H          2.79963        2.32475       -2.53368
H          3.66029        3.86923       -2.14301
H          5.60412        2.74914        0.77600
H          5.15100        4.03759       -0.41286
H          4.60231        3.72059        1.12202
H          3.91964       -1.68160        1.60026
H          2.41366       -1.42461        0.63068
H          3.84913       -1.58721       -0.17857
H          5.79318       -0.13072        1.62608
H          5.69113       -0.53245       -0.12383
H          6.07753        0.98661        0.32050
H          3.26419        0.74416        2.93752
H          2.12811        3.10878        2.62877
H          2.72445        4.30376        0.58905
H          1.52080        3.53495       -0.09251
H          1.46588        1.82469        1.71524
H          4.36135        1.87954        2.37673
Li         1.52042        0.02007        1.13758
C          1.93319       -2.55286        3.14731
C          1.00543       -2.90851        4.30912
C          0.88690       -1.58102        5.04636
C          1.84136       -0.68384        4.28533
O          1.79825       -1.14020        2.94307
H          2.98280       -2.76481        3.46032
H          1.79501       -3.21859        2.28183
H         -0.00563       -3.19538        3.94795
H          1.39955       -3.75732        4.90531
H          2.88247       -0.82518        4.67797
H          1.58419        0.38589        4.40800
H         -0.12496       -1.16701        4.86207
H          1.05502       -1.62595        6.14365

-H 0
6-31g(d,p)
****
-Li 0
6-31g(d,p)
****
-C 0
6-31g(d,p)
****
-N 0
6-31+g(d,p)
****
-O 0
6-31+g(d,p)
****


