%chk=speciation51.chk
%nprocshared=16
%mem=32GB
#p opt PM7/gen scf=xqc 

 speciation study

0 1
C          0.75033        1.07753       -0.71104
C          1.39152       -0.31751       -0.50801
C          0.70729       -1.45216       -1.30546
C         -0.82425       -1.49275       -1.12547
C         -1.47340       -0.07110       -1.13051
N         -0.72415        1.03573       -0.41065
C          1.38810        2.06558        0.27558
C          1.13224        1.59147       -2.11334
C         -1.72379        0.23443       -2.60616
C         -2.82218       -0.13637       -0.44072
H          0.95169        0.88802       -2.93291
H          0.64524        2.55968       -2.32051
H          2.23325        1.74593       -2.16669
H          2.49822        2.07287        0.18441
H          1.05762        3.07703        0.05683
H          1.07902        1.83727        1.31213
H         -2.67071       -0.28310        0.64215
H         -3.29343        0.84044       -0.59924
H         -3.47454       -0.94848       -0.82124
H         -2.48529       -0.46749       -3.01169
H         -2.08685        1.25504       -2.69824
H         -0.84895        0.05406       -3.24377
H         -1.25638       -2.15965       -1.90288
H          0.93048       -1.30115       -2.37501
H          2.48209       -0.31393       -0.73653
H          1.33037       -0.51055        0.53774
H          1.13861       -2.44225       -1.02152
H         -1.19772       -2.10495       -0.30287
Li        -0.88956        0.94315        1.79320
C         -2.94961        1.27734        3.91385
C         -4.24655        0.88428        3.23063
C         -4.35413        1.97678        2.20640
C         -3.13876        2.83203        2.39827
O         -2.16237        1.98657        2.97626
H         -3.22555        1.99028        4.72620
H         -2.41968        0.47195        4.42554
H         -4.17550       -0.07707        2.67745
H         -5.10038        0.78816        3.93211
H         -2.79766        3.27216        1.44500
H         -3.36712        3.66414        3.11280
H         -4.04187        1.47976        1.30470
H         -5.34308        2.46802        2.06576
C         -0.60529        4.92044        1.56388
C         -0.78460        6.43686        1.54842
C         -0.48371        6.78929        0.10111
C          0.00844        5.46735       -0.46424
O         -0.77654        4.49749        0.21111
H          0.44164        4.68668        1.88519
H         -1.23692        4.45882        2.32915
H         -1.84531        6.71336        1.75325
H         -0.12644        6.92960        2.29929
H         -0.03936        5.40398       -1.56661
H          1.09128        5.34002       -0.21136
H         -1.45994        7.00458       -0.38323
H          0.18207        7.66579       -0.05110
C          1.60656       -0.12453        3.67191
C          2.03357       -1.20067        4.73116
C          1.74876       -2.62224        4.28787
C          0.24557       -2.71018        4.17110
C         -0.32616       -1.69833        3.13998
N          0.12006       -0.24363        3.25733
C          1.79230        1.23737        4.34964
C          2.70784       -0.20762        2.57255
C          0.02498       -2.19131        1.79249
C         -1.85076       -1.80174        3.27202
H          2.77650       -1.15940        2.02804
H          3.71169       -0.11620        3.04562
H          2.70936        0.62950        1.87792
H          2.83778        1.36137        4.71684
H          1.55931        2.06587        3.65368
H          1.12184        1.31135        5.21910
H         -2.17898       -1.61375        4.31220
H         -2.31369       -1.09260        2.58374
H         -2.21929       -2.81906        3.01022
H         -0.45339       -3.16352        1.54437
H         -0.36461       -1.34247        1.24481
H          1.09597       -2.32866        1.61192
H         -0.04237       -3.75294        3.89485
H          2.27589       -2.89005        3.34919
H          3.11620       -1.12139        4.98177
H          1.49179       -1.04615        5.67154
H          2.09529       -3.35029        5.05328
H         -0.18565       -2.52010        5.17864
Li        -1.77873        2.93939       -0.74589
C         -1.64626        1.14122        7.35992
C         -0.62711        2.24988        7.46811
C          0.58175        1.53487        8.02898
C          0.18511        0.06308        7.91483
O         -0.92380       -0.02740        7.03999
H         -2.16073        0.98301        8.33602
H         -2.43661        1.36951        6.63141
H         -0.39103        2.55062        6.42426
H         -0.95639        3.15132        8.02839
H          1.03451       -0.59651        7.67081
H         -0.16703       -0.29107        8.91176
H          1.46166        1.79010        7.39971
H          0.81256        1.77977        9.08737
C         -3.32398        4.17118       -3.10957
C         -4.42983        4.27750       -4.18842
C         -5.73744        4.74019       -3.56699
C         -6.15548        3.67496       -2.61403
C         -5.12128        3.34140       -1.48165
N         -3.66836        3.25222       -1.97524
C         -2.06436        3.62815       -3.82273
C         -2.95174        5.59586       -2.64198
C         -5.21123        4.39087       -0.35930
C         -5.70870        1.97938       -0.99888
H         -3.74894        6.15043       -2.13834
H         -2.10860        5.56021       -1.95724
H         -2.66220        6.22458       -3.51548
H         -1.73870        4.30679       -4.64072
H         -1.22817        3.53256       -3.10452
H         -2.26251        2.64318       -4.29293
H         -5.72759        1.22613       -1.81879
H         -5.26708        1.45403       -0.18943
H         -6.75936        2.12241       -0.65520
H         -6.21185        4.38646        0.12356
H         -4.45319        4.21196        0.41793
H         -5.06272        5.41739       -0.72061
H         -7.14746        3.92535       -2.16642
H         -5.65028        5.73112       -3.06507
H         -4.12001        4.98605       -4.99539
H         -4.58372        3.27822       -4.65737
H         -6.50563        4.83831       -4.35576
H         -6.32285        2.77825       -3.25649
Li        -0.40851       -0.13414        5.17272

-H 0
6-31g(d,p)
****
-Li 0
6-31g(d,p)
****
-C 0
6-31g(d,p)
****
-N 0
6-31+g(d,p)
****
-O 0
6-31+g(d,p)
****


