%chk=speciation46.chk
%nprocshared=16
%mem=32GB
#p opt PM7/gen scf=xqc 

 speciation study

0 1
C          0.75390        1.23505       -0.11623
C          1.53114       -0.09664        0.21118
C          0.87472       -1.37292       -0.23571
C         -0.53033       -1.36087        0.34300
C         -1.35002       -0.13939       -0.16850
N         -0.74200        1.19900        0.24700
C          1.48969        2.24935        0.75404
C          1.02846        1.67452       -1.57401
C         -1.54838       -0.31863       -1.69436
C         -2.74388       -0.25453        0.42798
H          0.76882        0.95546       -2.35284
H          0.52401        2.63697       -1.78521
H          2.12080        1.83132       -1.72270
H          2.59512        2.17842        0.63263
H          1.27335        3.28640        0.53149
H          1.23303        1.99728        1.77883
H         -2.68940       -0.20755        1.51415
H         -3.36607        0.55263        0.02915
H         -3.22335       -1.22311        0.16143
H         -2.12051       -1.24807       -1.90601
H         -2.09866        0.51647       -2.08918
H         -0.64878       -0.44979       -2.29848
H         -1.02922       -2.31883        0.07359
H          0.90065       -1.47727       -1.33427
H          2.57736       -0.06143       -0.16996
H          1.61838       -0.21285        1.29692
H          1.44088       -2.24148        0.17218
H         -0.44384       -1.32863        1.44333
Li        -0.75479        1.22855        2.23674
C         -1.48026        4.09254       -3.21948
C         -2.64826        4.67477       -4.02715
C         -3.71711        3.61544       -3.89601
C         -2.95869        2.43666       -3.35926
O         -1.97049        2.97221       -2.50490
H         -0.71635        3.70129       -3.93682
H         -0.96585        4.84525       -2.59950
H         -3.04689        5.61752       -3.59162
H         -2.32570        4.84831       -5.07808
H         -3.65814        1.74601       -2.84852
H         -2.44823        1.87869       -4.18303
H         -4.39048        3.92337       -3.07039
H         -4.32932        3.42102       -4.80507
C         -1.22625        5.12656        6.52453
C         -1.86151        4.58318        7.78099
C         -3.33089        4.76601        7.51653
C         -3.36968        4.98603        6.00946
O         -2.08290        4.74667        5.46933
H         -1.14528        6.23702        6.54286
H         -0.20351        4.72119        6.40568
H         -1.66764        3.49004        7.77228
H         -1.49044        5.00322        8.74098
H         -4.19293        4.44174        5.51414
H         -3.56289        6.07448        5.85094
H         -3.87541        3.84939        7.83038
H         -3.76141        5.65862        8.02421
C          0.58713        1.20169        4.90719
C          0.47742        1.14191        6.45903
C         -0.45302        0.03972        6.93854
C         -1.82262        0.31647        6.34419
C         -1.79430        0.30470        4.79405
N         -0.76758        1.25810        4.22648
C          1.37276        2.50529        4.63376
C          1.45529        0.03163        4.40097
C         -1.63588       -1.15354        4.28916
C         -3.17618        0.77374        4.34718
H          1.12196       -0.96641        4.69958
H          1.50891        0.06742        3.31340
H          2.49025        0.10526        4.79737
H          2.35184        2.48573        5.16296
H          1.61221        2.69275        3.59301
H          0.81006        3.38607        4.98287
H         -3.37817        1.81463        4.67225
H         -3.21532        0.72951        3.26746
H         -3.97838        0.11049        4.74252
H         -2.49432       -1.77356        4.62790
H         -1.62678       -1.18889        3.19514
H         -0.76139       -1.69586        4.66116
H         -2.55185       -0.43246        6.72763
H         -0.07461       -0.96436        6.66223
H          1.47899        1.00962        6.91752
H          0.06312        2.10080        6.83515
H         -0.51700        0.07492        8.04741
H         -2.15502        1.31297        6.70535
Li        -1.89411        2.76247       -0.54174
C         -4.32794        3.95543        1.18978
C         -4.54980        4.55784        2.60261
C         -3.91442        5.93498        2.73258
C         -2.42016        5.74693        2.53972
C         -2.07851        5.19070        1.14974
N         -2.87672        3.97134        0.81034
C         -4.81748        2.50750        1.25090
C         -5.21557        4.66193        0.15730
C         -2.19124        6.29489        0.08728
C         -0.61605        4.75999        1.20214
H         -5.01607        5.73448        0.05703
H         -5.10035        4.17963       -0.83315
H         -6.28202        4.57270        0.46356
H         -5.86009        2.44163        1.63213
H         -4.80171        2.05297        0.24622
H         -4.18024        1.93259        1.92707
H         -0.48107        3.93132        1.92575
H         -0.35551        4.44240        0.17676
H          0.05327        5.60104        1.50358
H         -1.50407        7.13269        0.34326
H         -1.89913        5.90344       -0.89852
H         -3.17669        6.73757        0.03047
H         -1.87527        6.70159        2.73881
H         -4.33942        6.66300        2.01475
H         -5.63315        4.60936        2.84797
H         -4.07938        3.88730        3.35604
H         -4.11368        6.34010        3.74059
H         -2.06760        5.01091        3.26825
Li        -1.43360        3.02458        4.85581

-H 0
6-31g(d,p)
****
-Li 0
6-31g(d,p)
****
-C 0
6-31g(d,p)
****
-N 0
6-31+g(d,p)
****
-O 0
6-31+g(d,p)
****


