%chk=speciation42.chk
%nprocshared=16
%mem=32GB
#p opt PM7/gen scf=xqc 

 speciation study

0 1
C          0.80203        1.12934        0.09155
C          1.50231       -0.23542        0.48851
C          0.90527       -1.46436       -0.11830
C         -0.52745       -1.44279        0.32647
C         -1.31045       -0.18695       -0.19128
N         -0.74200        1.19900        0.24700
C          1.39472        2.11309        1.06284
C          1.36977        1.45707       -1.29063
C         -1.48455       -0.32508       -1.72550
C         -2.68799       -0.43627        0.37269
H          1.22113        0.63946       -2.01271
H          1.02788        2.41897       -1.64243
H          2.48351        1.50146       -1.26177
H          2.50833        2.17164        0.99583
H          0.95307        3.09238        0.98537
H          1.11526        1.73318        2.03342
H         -2.64528       -0.55382        1.47081
H         -3.29500        0.36927       -0.00398
H         -3.12886       -1.39494        0.01550
H         -1.96870       -1.29783       -1.96949
H         -2.14321        0.46119       -2.12736
H         -0.55129       -0.36535       -2.28954
H         -0.99978       -2.39236       -0.00777
H          1.01309       -1.50756       -1.21960
H          2.59502       -0.22521        0.27536
H          1.42659       -0.42927        1.54959
H          1.41229       -2.36980        0.29803
H         -0.52871       -1.46992        1.43252
Li        -1.85245        2.92009       -0.66179
C         -1.54534        5.91523        0.00120
C         -0.84509        6.98293       -0.81527
C          0.49614        6.36286       -1.10436
C          0.47919        5.09520       -0.28481
O         -0.87805        4.68052       -0.17458
H         -1.39386        6.22241        1.06744
H         -2.62997        5.87079       -0.19088
H         -1.37005        7.14819       -1.77802
H         -0.79168        7.93153       -0.23401
H          1.15679        4.36122       -0.74825
H          0.85923        5.31810        0.74434
H          0.48306        6.05506       -2.16558
H          1.38159        7.01268       -0.93757
C         -0.75544        2.35966       -3.63021
C         -0.02426        3.63595       -3.95416
C         -1.19859        4.50882       -4.27825
C         -2.34279        3.85843       -3.46828
O         -1.83343        2.72998       -2.77395
H         -1.14999        1.89767       -4.56374
H         -0.12489        1.57532       -3.24827
H          0.45009        3.99678       -3.02665
H          0.75674        3.58053       -4.75031
H         -2.82086        4.57687       -2.79202
H         -3.10306        3.47743       -4.19318
H         -0.99121        5.57271       -4.04315
H         -1.42529        4.40326       -5.36561
C         -5.27098        3.36374       -0.41234
C         -6.55084        2.97878        0.41761
C         -6.47143        3.43406        1.87155
C         -5.27114        2.74913        2.48102
C         -3.96232        3.15005        1.74245
N         -4.00786        2.91073        0.25655
C         -5.39415        2.59483       -1.74667
C         -5.28862        4.86496       -0.71724
C         -3.50353        4.54470        2.19106
C         -2.89131        2.26649        2.23533
H         -5.27827        5.48595        0.18671
H         -4.44468        5.14331       -1.36701
H         -6.23449        5.12351       -1.24193
H         -6.30904        2.89928       -2.30077
H         -4.51470        2.77139       -2.38286
H         -5.46215        1.49748       -1.57962
H         -3.23229        1.27279        2.03289
H         -1.98825        2.51399        1.67725
H         -2.69282        2.42638        3.29910
H         -3.44883        4.57805        3.30262
H         -2.46722        4.67439        1.88448
H         -4.13297        5.38053        1.88742
H         -5.19990        2.97862        3.56828
H         -6.38935        4.53449        1.96033
H         -7.47072        3.38834       -0.05057
H         -6.69425        1.87500        0.43976
H         -7.38570        3.11079        2.41935
H         -5.44725        1.64888        2.41058
Li        -0.75479        1.22855        2.23674
C          0.61560        1.31003        4.90614
C          0.55032        1.29492        6.46262
C         -0.24227        0.13567        7.01794
C         -1.63716        0.27248        6.46816
C         -1.69246        0.21053        4.89693
N         -0.76758        1.25810        4.22648
C          1.37156        2.63200        4.60323
C          1.54574        0.14673        4.48119
C         -1.41191       -1.24783        4.44227
C         -3.20585        0.37912        4.63813
H          1.30111       -0.84499        4.86762
H          1.57187        0.08602        3.41821
H          2.58806        0.29746        4.82609
H          2.34456        2.63329        5.14988
H          1.67496        2.82027        3.57767
H          0.78636        3.51086        4.93838
H         -3.57909        1.38296        4.92636
H         -3.49352        0.07713        3.62595
H         -3.80373       -0.33321        5.25407
H         -2.17188       -1.95613        4.85398
H         -1.48400       -1.32380        3.34506
H         -0.48074       -1.71985        4.76872
H         -2.26259       -0.52528        6.92691
H          0.19948       -0.85073        6.77138
H          1.57658        1.24868        6.89684
H          0.07898        2.23445        6.82504
H         -0.27181        0.20721        8.12630
H         -2.04492        1.25210        6.80926
Li        -4.85009        1.13879        0.34517

-H 0
6-31g(d,p)
****
-Li 0
6-31g(d,p)
****
-C 0
6-31g(d,p)
****
-N 0
6-31+g(d,p)
****
-O 0
6-31+g(d,p)
****


