%chk=speciation65.chk
%nprocshared=16
%mem=32GB
#p opt PM7/gen scf=xqc 

 speciation study

0 1
C         -0.90455       -0.25788       -1.15713
C         -2.45284       -0.15884       -1.10563
C         -2.96699        1.06796       -1.85990
C         -2.24501        2.33548       -1.37641
C         -0.69995        2.17876       -1.36392
N         -0.22793        0.98642       -0.55097
C         -0.51091       -1.41360       -0.33701
C         -0.46066       -0.71766       -2.58354
C         -0.20026        2.21870       -2.84086
C         -0.12817        3.38925       -0.69961
H         -0.91601       -0.28157       -3.47031
H          0.62237       -0.61370       -2.64889
H         -0.72419       -1.78804       -2.75976
H         -1.11356       -2.33336       -0.52337
H          0.54666       -1.62972       -0.54003
H         -0.63805       -1.04938        0.65758
H         -0.52145        3.34009        0.30206
H          0.95624        3.31339       -0.64514
H         -0.43256        4.33364       -1.20107
H         -0.33115        3.23151       -3.27361
H          0.85881        1.90776       -2.93373
H         -0.82236        1.66864       -3.55002
H         -2.56550        3.19368       -2.00914
H         -2.80527        0.92303       -2.94613
H         -2.93849       -1.07060       -1.52954
H         -2.75055       -0.12275       -0.05317
H         -4.06700        1.17233       -1.72292
H         -2.54784        2.60965       -0.36536
Li        -0.41571        1.20730        2.07604
C          1.53317        3.71423        3.86966
C          0.78426        4.73508        4.65544
C          0.07914        5.45474        3.55019
C          0.12787        4.45171        2.38735
O          0.56213        3.19712        2.89295
H          2.40470        4.21934        3.39665
H          2.05091        3.10378        4.61258
H          0.04562        4.16994        5.26335
H          1.40271        5.38531        5.31954
H         -0.86520        4.46905        1.92369
H          0.90339        4.80810        1.65397
H         -0.95206        5.67537        3.88824
H          0.60613        6.39085        3.24843
C         -3.81225        1.26539        1.81418
C         -4.83549        2.23672        2.41580
C         -4.32390        2.41056        3.80631
C         -3.38552        1.26240        3.92238
O         -2.65879        1.25517        2.66972
H         -4.26252        0.23734        1.80431
H         -3.70289        1.52232        0.77957
H         -4.82454        3.24836        1.94483
H         -5.85767        1.80251        2.36889
H         -2.88047        1.52083        4.85671
H         -3.92128        0.27805        4.08297
H         -3.67434        3.30086        3.84259
H         -5.10509        2.48439        4.60429
C          0.14950       -1.99838        3.07118
C          0.36012       -3.08983        4.16863
C         -0.14146       -2.64928        5.53003
C          0.64277       -1.41278        5.88359
C          0.43528       -0.28726        4.84280
N          0.67288       -0.61538        3.40651
C          0.97092       -2.51034        1.88391
C         -1.38124       -1.96792        2.74290
C         -0.90906        0.31478        4.99404
C          1.38948        0.78614        5.18809
H         -2.03944       -2.11247        3.61003
H         -1.72129       -1.00779        2.32232
H         -1.65925       -2.80715        2.07008
H          0.44192       -3.28948        1.29546
H          1.35075       -1.64881        1.32173
H          1.88844       -3.01809        2.17504
H          2.37817        0.36303        5.26668
H          1.34094        1.36941        4.28369
H          1.14445        1.34372        6.12296
H         -1.09527        0.68868        6.02609
H         -0.92369        1.17419        4.28981
H         -1.69871       -0.41164        4.78173
H          0.35381       -1.05828        6.89987
H         -1.23286       -2.46159        5.55025
H         -0.12727       -4.04300        3.86472
H          1.43944       -3.30766        4.30016
H          0.05797       -3.44387        6.27881
H          1.71733       -1.69265        5.92871
Li         1.93143        1.08812       -1.07446
C          3.04086       -1.30473       -2.96325
C          2.58238       -2.72358       -2.63607
C          3.01411       -2.91666       -1.20222
C          3.47296       -1.53759       -0.82537
O          2.91434       -0.61061       -1.73843
H          4.11485       -1.30837       -3.27341
H          2.46789       -0.85077       -3.79757
H          1.47535       -2.70619       -2.61045
H          2.89050       -3.53137       -3.32730
H          3.16999       -1.33342        0.20930
H          4.58954       -1.47628       -0.91883
H          2.12933       -3.19375       -0.59068
H          3.82262       -3.65469       -1.00948
C          4.15992       -3.17168        4.26674
C          5.66158       -3.14372        4.19147
C          5.92010       -3.20543        2.70824
C          4.58850       -2.74876        2.12555
O          3.75834       -2.35625        3.20396
H          3.74988       -4.19862        4.10505
H          3.78650       -2.79164        5.23774
H          5.94512       -2.12358        4.52779
H          6.20343       -3.89983        4.79506
H          4.78855       -1.94578        1.40927
H          4.09231       -3.61600        1.61262
H          6.74776       -2.51463        2.44690
H          6.14464       -4.22946        2.32686
C          3.79159        3.85986       -1.77497
C          4.78871        4.89023       -1.14902
C          5.88280        4.22268       -0.33745
C          5.18003        3.52915        0.80801
C          4.08764        2.49943        0.34832
N          3.25147        2.87395       -0.80052
C          2.62556        4.65967       -2.30297
C          4.46604        3.11306       -2.93384
C          4.72533        1.19131       -0.04950
C          3.01439        2.34344        1.44347
H          5.36077        2.55124       -2.62545
H          3.73855        2.40449       -3.39562
H          4.80202        3.83657       -3.70090
H          2.94793        5.41509       -3.06926
H          1.86276        4.00632       -2.77426
H          2.08486        5.22357       -1.48640
H          2.61135        3.36059        1.53230
H          2.18098        1.69812        1.11075
H          3.22832        1.97873        2.43994
H          5.52661        0.73840        0.53254
H          3.87327        0.56591        0.00830
H          5.12544        1.18722       -1.06766
H          5.95358        3.05345        1.44641
H          6.48953        3.51601       -0.93843
H          5.23850        5.53081       -1.94360
H          4.24706        5.57337       -0.46120
H          6.57777        4.99256        0.08050
H          4.71636        4.33151        1.42718
Li         2.89230       -0.64685        3.57137
C          5.34107        1.29661        3.38318
C          6.64308        1.39309        4.11186
C          6.18079        1.43192        5.54924
C          4.66488        1.26352        5.44703
O          4.43139        0.61933        4.21018
H          5.02141        2.35501        3.25168
H          5.48616        0.75917        2.46787
H          7.19687        0.45022        3.92775
H          7.24560        2.26750        3.76024
H          4.27273        0.72010        6.32745
H          4.17224        2.27277        5.40959
H          6.59925        0.52891        6.02980
H          6.46914        2.34750        6.10620

-H 0
6-31g(d,p)
****
-Li 0
6-31g(d,p)
****
-C 0
6-31g(d,p)
****
-N 0
6-31+g(d,p)
****
-O 0
6-31+g(d,p)
****


