%chk=speciation44.chk
%nprocshared=16
%mem=32GB
#p opt PM7/gen scf=xqc 

 speciation study

0 1
C          0.74481        1.21527       -0.16462
C          1.49383       -0.11567        0.19104
C          0.79193       -1.37676       -0.25091
C         -0.61462       -1.34044        0.32590
C         -1.40755       -0.09249       -0.16792
N         -0.74200        1.19900        0.24700
C          1.51832        2.29095        0.60888
C          0.99515        1.57441       -1.64745
C         -1.67452       -0.23202       -1.69644
C         -2.77618       -0.12760        0.47721
H          0.74425        0.81109       -2.38242
H          0.48687        2.51488       -1.89375
H          2.08601        1.72796       -1.82645
H          2.60999        2.25943        0.38676
H          1.17361        3.31797        0.37792
H          1.41942        2.05745        1.66908
H         -2.64653       -0.12798        1.55499
H         -3.38608        0.74329        0.15925
H         -3.31243       -1.06721        0.20416
H         -2.28269       -1.15545       -1.88038
H         -2.23044        0.61895       -2.08908
H         -0.80336       -0.42834       -2.31892
H         -1.13963       -2.28326        0.06525
H          0.79764       -1.47818       -1.35180
H          2.53833       -0.11461       -0.19645
H          1.57673       -0.21152        1.27768
H          1.33745       -2.26142        0.15398
H         -0.51509       -1.30684        1.42745
Li        -1.91812        2.73276       -0.53644
C         -1.34108        3.86356       -3.28258
C         -2.26498        4.88649       -3.92458
C         -3.62615        4.21475       -3.84088
C         -3.30019        2.84393       -3.27661
O         -2.14321        3.02545       -2.48337
H         -0.89350        3.21837       -4.08204
H         -0.50619        4.34420       -2.73824
H         -2.28667        5.80975       -3.30489
H         -1.92914        5.14808       -4.95204
H         -4.15313        2.37343       -2.75560
H         -3.05082        2.15293       -4.11123
H         -4.22548        4.76198       -3.08607
H         -4.22131        4.22136       -4.77486
C         -5.48584        0.23983        2.47315
C         -6.71532        0.81346        1.80264
C         -7.01805        2.02467        2.66189
C         -5.90333        1.99341        3.70489
O         -4.81066        1.30613        3.12565
H         -5.80495       -0.48652        3.25735
H         -4.87606       -0.35372        1.78516
H         -6.43696        1.14810        0.78286
H         -7.53673        0.07455        1.69611
H         -5.64189        2.99280        4.10272
H         -6.24536        1.40253        4.58740
H         -6.90573        2.92812        2.02534
H         -8.03164        2.04056        3.10945
C         -4.06315        4.67766        0.58366
C         -4.72450        5.25451        1.87613
C         -3.76043        6.11797        2.68395
C         -2.60425        5.22863        3.07679
C         -1.90042        4.59303        1.83620
N         -2.82529        3.86599        0.90073
C         -5.07848        3.73923       -0.05384
C         -3.85570        5.85087       -0.40301
C         -0.96875        5.59175        1.10308
C         -1.03784        3.55953        2.44010
H         -3.32053        6.71879       -0.00812
H         -3.33100        5.51108       -1.29967
H         -4.84547        6.28046       -0.68231
H         -6.06452        4.23413       -0.20092
H         -4.71587        3.38821       -1.01943
H         -5.20763        2.86313        0.58722
H         -1.72002        2.84544        2.92246
H         -0.51918        3.07796        1.64368
H         -0.32121        4.00148        3.15497
H         -0.19053        5.97008        1.80231
H         -0.45841        5.09626        0.25056
H         -1.45873        6.49400        0.73260
H         -1.88222        5.80347        3.69654
H         -3.41225        7.00847        2.12818
H         -5.63302        5.84985        1.63335
H         -5.05501        4.41923        2.52161
H         -4.26300        6.48174        3.60833
H         -3.04392        4.43972        3.72239
Li        -0.75479        1.22855        2.23674
C          0.61579        1.26727        4.88340
C          0.57801        1.20175        6.44898
C         -0.25946        0.06192        6.98897
C         -1.64502        0.28167        6.45506
C         -1.64741        0.24118        4.90612
N         -0.76758        1.25810        4.22648
C          1.36440        2.58232        4.60019
C          1.50246        0.11768        4.36090
C         -1.49147       -1.22432        4.39024
C         -2.96948        0.65162        4.54375
H          1.19706       -0.88430        4.67010
H          1.52846        0.15123        3.27466
H          2.54245        0.20687        4.73821
H          2.36834        2.56598        5.08468
H          1.55141        2.76571        3.54532
H          0.81206        3.44848        5.01654
H         -3.17463        1.70055        4.86929
H         -2.87131        0.61538        3.45245
H         -3.76874       -0.02768        4.92083
H         -2.33172       -1.85032        4.76718
H         -1.54554       -1.26491        3.29211
H         -0.60556       -1.76856        4.72631
H         -2.34072       -0.48545        6.86838
H          0.13290       -0.93100        6.70520
H          1.60512        1.11093        6.86566
H          0.14394        2.14611        6.84983
H         -0.28915        0.10769        8.10332
H         -2.00460        1.27353        6.82320
Li        -3.83060        2.56978        2.02734

-H 0
6-31g(d,p)
****
-Li 0
6-31g(d,p)
****
-C 0
6-31g(d,p)
****
-N 0
6-31+g(d,p)
****
-O 0
6-31+g(d,p)
****


