%chk=speciation38.chk
%nprocshared=16
%mem=32GB
#p opt PM7/gen scf=xqc 

 speciation study

0 1
C         -0.82325       -1.36785        0.24205
C         -2.21368       -1.57033       -0.40681
C         -3.21858       -0.50539        0.04044
C         -2.68447        0.86677       -0.34583
C         -1.29622        1.15230        0.25213
N         -0.36492        0.02327       -0.10563
C         -0.86324       -1.71362        1.76495
C          0.12526       -2.41263       -0.37150
C         -1.43275        1.43439        1.79975
C         -0.80520        2.41616       -0.48211
H          0.34662       -2.18958       -1.43390
H          1.05121       -2.49328        0.21875
H         -0.31033       -3.43339       -0.30061
H         -1.15742       -2.78286        1.90052
H          0.13262       -1.58328        2.23919
H         -1.60150       -1.17036        2.36166
H         -1.61929        3.03614       -0.90191
H         -0.24696        3.10864        0.17830
H         -0.23682        2.09082       -1.37856
H         -0.50179        1.31403        2.38740
H         -1.81083        2.46141        1.98866
H         -2.16484        0.79342        2.31127
H         -2.59564        0.88017       -1.45427
H         -4.18304       -0.65654       -0.48589
H         -2.61672       -2.58188       -0.18998
H         -2.09436       -1.47880       -1.51049
H         -3.41871       -0.57562        1.12677
H         -3.39764        1.66705       -0.04561
Li         1.60473        0.50784       -0.37181
C          3.66665        2.51503       -0.44720
C          2.32011        2.90616        0.05636
C          2.01243        2.09168        1.36669
C          2.99421        0.91717        1.78951
C          3.88462        0.28367        0.64280
N          3.58850        1.03081       -0.55900
C          4.67729        3.22109        0.54009
C          3.95014        3.01590       -1.87877
C          5.40055        0.18319        0.98459
C          3.51286       -1.17059        0.27641
H          4.94682        2.63982       -2.20515
H          3.20309        2.61004       -2.59957
H          3.94518        4.12143       -1.94737
H          5.23489        2.80221        1.37860
H          4.77337        4.30212        0.32440
H          4.12656        3.36153        1.47860
H          3.57579       -1.88048        1.12759
H          2.54951       -1.23129       -0.22322
H          4.19595       -1.54429       -0.52445
H          5.52577       -0.25109        1.99943
H          5.94819       -0.44152        0.24991
H          5.99294        1.08745        0.93885
H          2.43367        0.14846        2.36888
H          1.78526        2.76237        2.22224
H          2.17894        4.00402        0.17442
H          1.67410        2.59816       -0.76906
H          1.07106        1.63631        1.15844
H          3.68481        1.36065        2.52915
Li         1.61352        0.49346       -0.30493

-H 0
6-31g(d,p)
****
-Li 0
6-31g(d,p)
****
-C 0
6-31g(d,p)
****
-N 0
6-31+g(d,p)
****
-O 0
6-31+g(d,p)
****


