%chk=speciation26.chk
%nprocshared=16
%mem=32GB
#p opt PM7/gen scf=xqc 

 speciation study

0 1
C          0.62007        1.48027       -0.37859
C          1.36243        0.13882       -0.38482
C          0.73807       -0.97319       -1.25235
C         -0.77463       -1.16197       -0.98051
C         -1.44620        0.21355       -0.80977
N         -0.74200        1.19900        0.24700
C          1.32524        2.54673        0.44144
C          0.73813        2.11193       -1.82485
C         -1.63331        0.61405       -2.32225
C         -2.88172        0.03115       -0.43555
H          0.68026        1.46141       -2.69266
H          0.10607        3.00644       -1.95914
H          1.78595        2.42167       -2.03178
H          2.33379        2.79785        0.04268
H          0.71736        3.47673        0.37932
H          1.48318        2.19329        1.45406
H         -2.82901        0.05576        0.62547
H         -3.50036        0.87128       -0.81171
H         -3.34383       -0.89208       -0.85711
H         -2.40614       -0.02899       -2.81597
H         -1.96449        1.63371       -2.40188
H         -0.85252        0.34504       -3.04703
H         -1.17961       -1.76972       -1.82376
H          0.89934       -0.70102       -2.31079
H          2.42711        0.26907       -0.68000
H          1.22742       -0.19216        0.63095
H          1.27378       -1.93773       -1.12822
H         -1.15680       -1.82882       -0.21254
Li        -0.63712        1.08467        2.49097
C          1.19614        3.39775        4.21418
C          0.45537        4.41739        5.02865
C         -0.25164        5.23131        3.97190
C          0.01625        4.40969        2.70223
O          0.31838        3.06522        3.12727
H          2.14965        3.84979        3.80849
H          1.48654        2.59040        4.89544
H         -0.30071        3.80954        5.57174
H          1.05771        4.99440        5.76546
H         -0.71538        4.56698        1.88630
H          0.92928        4.84074        2.21822
H         -1.31925        5.28284        4.26654
H          0.13766        6.26550        3.85337
C         -4.31914        3.64075       -1.93200
C         -3.75146        3.47027       -3.33179
C         -2.42170        4.19077       -3.24470
C         -2.41972        4.75588       -1.82786
O         -3.25633        3.92980       -1.04366
H         -4.97353        4.54564       -1.94027
H         -4.96350        2.79858       -1.60803
H         -3.58392        2.39343       -3.53941
H         -4.44076        3.85356       -4.11212
H         -1.38974        4.82008       -1.41512
H         -2.84548        5.78273       -1.82872
H         -1.62008        3.43713       -3.33594
H         -2.21177        4.92988       -4.04320
C         -3.88808       -0.16615        3.38338
C         -5.36455        0.11350        3.83303
C         -6.06603        1.22149        3.09033
C         -5.22156        2.47020        3.32410
C         -3.82039        2.28167        2.71140
N         -3.00956        1.06469        3.16366
C         -3.24071       -0.85916        4.57075
C         -4.02824       -1.17134        2.19700
C         -4.03416        2.30022        1.22957
C         -2.98748        3.49155        3.04756
H         -4.65801       -0.74393        1.38531
H         -3.11277       -1.58348        1.76862
H         -4.57690       -2.07222        2.53005
H         -3.56324       -1.90880        4.71043
H         -2.14961       -0.69191        4.56656
H         -3.47985       -0.31191        5.47066
H         -2.82934        3.58307        4.13791
H         -2.04932        3.23777        2.57224
H         -3.38251        4.44390        2.62643
H         -4.47478        3.25856        0.88538
H         -3.04843        2.18210        0.88831
H         -4.65899        1.49394        0.83005
H         -5.72603        3.35204        2.86488
H         -6.22949        0.96172        2.02663
H         -5.97523       -0.81291        3.81804
H         -5.38079        0.44645        4.85951
H         -7.07599        1.38685        3.51273
H         -5.13710        2.67599        4.40985
Li        -2.01516        2.58177       -0.40654
C         -2.58210        0.70634        7.64926
C         -3.98995        0.23012        7.99755
C         -4.83880        1.43192        7.65177
C         -3.83273        2.52759        7.38346
O         -2.66829        1.88617        6.90379
H         -2.04331        0.96360        8.58356
H         -1.96201       -0.08367        7.15056
H         -4.34079       -0.64168        7.39641
H         -4.02875       -0.05907        9.06482
H         -4.22596        3.28048        6.67163
H         -3.56562        3.03837        8.33189
H         -5.31417        1.23213        6.68934
H         -5.67411        1.65877        8.34343
C          2.43169       -0.71277        3.26619
C          3.17321       -1.90079        3.96680
C          2.77702       -3.25757        3.42707
C          1.31182       -3.38861        3.73703
C          0.48148       -2.30249        3.01400
N          0.89222       -0.83572        3.22425
C          2.74793        0.51915        4.06547
C          3.17680       -0.49489        1.91633
C          0.47919       -2.60973        1.55063
C         -0.92881       -2.53859        3.50088
H          3.04059       -1.29845        1.17450
H          2.96794        0.50685        1.50310
H          4.27485       -0.43877        2.06089
H          3.83791        0.72655        4.11806
H          2.27906        1.32376        3.49335
H          2.33126        0.43395        5.09113
H         -0.98201       -2.42616        4.60273
H         -1.53085       -1.81925        2.96539
H         -1.31293       -3.55644        3.25642
H         -0.07953       -3.53542        1.27871
H         -0.01056       -1.71426        1.25982
H          1.45203       -2.65337        1.05356
H          0.96004       -4.40594        3.44152
H          2.99913       -3.37557        2.34540
H          4.27631       -1.79572        3.85858
H          2.95996       -1.89859        5.05513
H          3.33175       -4.06206        3.95298
H          1.17314       -3.30795        4.83897
Li        -2.76389        1.50308        5.08912

-H 0
6-31g(d,p)
****
-Li 0
6-31g(d,p)
****
-C 0
6-31g(d,p)
****
-N 0
6-31+g(d,p)
****
-O 0
6-31+g(d,p)
****


