%chk=speciation6.chk
%nprocshared=16
%mem=32GB
#p opt PM7/gen scf=xqc 

 speciation study

0 1
C          0.68044        1.24555       -0.23467
C          1.32218       -0.15977       -0.11087
C          0.50116       -1.22496       -0.85551
C         -0.94032       -1.23961       -0.32756
C         -1.59822        0.15344       -0.42185
N         -0.74200        1.19900        0.24700
C          1.41767        2.24108        0.66133
C          0.90441        1.78722       -1.67708
C         -1.94462        0.49060       -1.90654
C         -2.97351        0.10981        0.26268
H          0.63740        1.12658       -2.50392
H          0.43395        2.77590       -1.80701
H          1.99341        1.91783       -1.86141
H          2.49306        2.31838        0.38633
H          0.95980        3.25258        0.56545
H          1.34533        1.90371        1.70514
H         -2.88279       -0.21844        1.31286
H         -3.46413        1.10795        0.19693
H         -3.64980       -0.61705       -0.24224
H         -2.74225       -0.17980       -2.29280
H         -2.32385        1.52313       -1.99201
H         -1.15976        0.32411       -2.64693
H         -1.54183       -1.99376       -0.88799
H          0.51529       -1.03420       -1.94589
H          2.36971       -0.15362       -0.48312
H          1.36213       -0.45042        0.94680
H          0.95656       -2.22626       -0.69793
H         -0.91479       -1.55350        0.73214
Li        -0.55728        1.11401        2.37073
C         -0.63620       -1.66817        3.52676
C         -0.30330       -1.65722        5.00281
C          1.14858       -1.23996        5.02454
C          1.37722       -0.72886        3.59732
O          0.11970       -0.62036        2.96373
H         -0.30489       -2.62552        3.06148
H         -1.72289       -1.57388        3.32793
H         -0.87366       -0.82287        5.44751
H         -0.55140       -2.57359        5.57849
H          1.99068        0.19089        3.53278
H          1.94458       -1.50947        3.03846
H          1.27122       -0.47231        5.81558
H          1.85617       -2.06696        5.23886
C         -3.79699        4.08923       -1.99334
C         -3.25813        3.82916       -3.39957
C         -1.79934        4.18164       -3.26314
C         -1.75414        4.93638       -1.95188
O         -2.70865        4.31439       -1.12104
H         -4.36940        5.04819       -2.02068
H         -4.50287        3.31375       -1.63501
H         -3.34619        2.76221       -3.70253
H         -3.80010        4.46670       -4.13047
H         -0.73716        4.90205       -1.50393
H         -2.03178        6.00538       -2.08799
H         -1.26514        3.22735       -3.09813
H         -1.33005        4.67712       -4.13976
C          0.00960        3.28670        4.71162
C         -0.62590        4.44503        5.53534
C         -1.93693        4.03154        6.18514
C         -2.89872        3.70418        5.05576
C         -2.38884        2.52586        4.18802
N         -0.97111        2.66875        3.74061
C          1.16871        3.91351        3.90622
C          0.63025        2.24809        5.66660
C         -2.60558        1.19400        4.93060
C         -3.24911        2.49208        2.92853
H         -0.09977        1.72072        6.29648
H          1.22632        1.55032        5.08506
H          1.33597        2.76260        6.36629
H          1.89175        4.42554        4.59722
H          1.75180        3.14296        3.37914
H          0.80136        4.66101        3.18084
H         -3.14968        3.43673        2.35274
H         -2.88376        1.68219        2.29358
H         -4.32068        2.31854        3.16327
H         -3.68138        1.05530        5.17572
H         -2.31265        0.36608        4.26872
H         -2.06310        1.13040        5.88343
H         -3.91026        3.48211        5.45485
H         -1.80764        3.18111        6.88349
H          0.08334        4.80811        6.31403
H         -0.83764        5.31589        4.87633
H         -2.34594        4.88680        6.76772
H         -2.99524        4.61750        4.42603
Li        -1.73783        2.77651       -0.44572

-H 0
6-31g(d,p)
****
-Li 0
6-31g(d,p)
****
-C 0
6-31g(d,p)
****
-N 0
6-31+g(d,p)
****
-O 0
6-31+g(d,p)
****


