%chk=speciation95.chk
%nprocshared=16
%mem=32GB
#p opt PM7/gen scf=xqc 

 speciation study

0 1
C         -1.23616       -1.45754        1.08445
C         -2.62428       -1.53987        0.40118
C         -3.62523       -0.58909        1.03950
C         -3.07421        0.81256        1.10939
C         -1.56682        0.92475        1.58263
N         -0.56841       -0.11795        0.97009
C         -1.35058       -2.10875        2.50192
C         -0.38249       -2.34843        0.34270
C         -1.62604        0.83985        3.08288
C         -1.15396        2.34906        1.28895
H         -0.23585       -1.80667       -0.57369
H          0.52119       -2.33506        0.86939
H         -0.77490       -3.38074        0.26381
H         -1.61968       -3.18403        2.41023
H         -0.38772       -2.05431        3.00766
H         -2.13964       -1.76265        3.16544
H         -0.96261        2.29454        0.24184
H         -0.29941        2.70652        1.87328
H         -1.95343        3.09381        1.50630
H         -0.62950        0.54065        3.34980
H         -1.97088        1.79988        3.55615
H         -2.38397        0.15782        3.49974
H         -3.26998        1.28899        0.17978
H         -4.58063       -0.58288        0.46647
H         -3.04452       -2.56678        0.43511
H         -2.47552       -1.39449       -0.65540
H         -3.85157       -0.94462        2.05678
H         -3.74053        1.43955        1.75900
Li         0.87935        0.11317       -1.11134
C          2.17550       -2.79216       -2.67784
C          1.78893       -3.67565       -3.84795
C          0.32000       -3.96319       -3.66377
C         -0.01960       -3.00165       -2.54281
O          1.02936       -1.99011       -2.35914
H          2.38033       -3.49372       -1.89538
H          3.07062       -2.18873       -2.87725
H          1.85631       -3.07227       -4.73218
H          2.43130       -4.56788       -4.03184
H         -1.08537       -2.67385       -2.56576
H          0.02249       -3.69046       -1.68520
H         -0.24563       -3.78947       -4.60107
H          0.08721       -5.01833       -3.38178
C          1.19315       -0.77263        4.97448
C          0.09155       -0.01216        5.72513
C          0.49095        1.45118        5.51339
C          1.86043        1.28085        4.92684
O          1.73713        0.13670        4.04278
H          2.00821       -1.04852        5.69138
H          0.86553       -1.72322        4.58857
H         -0.91012       -0.21897        5.31543
H          0.09159       -0.32623        6.78113
H          2.23737        2.23588        4.56170
H          2.60637        1.07752        5.73166
H         -0.06194        1.95341        4.70157
H          0.35272        2.12060        6.38116
C          3.09174        2.34440       -0.03749
C          1.90624        2.51542        0.71735
C          2.20144        1.82841        2.06497
C          3.48270        0.78070        2.18644
C          4.18265        0.40095        0.84785
N          3.09822        0.81521       -0.08079
C          4.18606        3.31431        0.60008
C          3.14351        2.76968       -1.44935
C          5.70784        0.89764        1.00450
C          4.53641       -0.97218        0.28413
H          4.15237        2.51871       -1.73212
H          2.39318        2.23959       -2.05892
H          3.22131        3.85585       -1.55675
H          4.37184        3.25353        1.68109
H          3.82221        4.36323        0.50704
H          5.14716        3.33746        0.04260
H          5.08034       -1.63294        0.98927
H          3.76929       -1.34973       -0.37418
H          5.21015       -0.86762       -0.60034
H          6.09213        0.37547        1.91694
H          6.43235        0.61658        0.20934
H          5.98323        1.91585        1.27480
H          4.17006        1.45967        2.73039
H          2.38122        2.71475        2.68527
H          1.60081        3.57929        0.84458
H          1.12815        1.94988        0.15646
H          1.23758        1.38439        2.31811
H          3.61968       -0.00683        2.94474
Li         1.64854       -0.38201        1.73704
C          2.75178       -3.18643        0.69653
C          2.16558       -4.57787        0.66059
C          1.62230       -4.71214        2.03963
C          2.27129       -3.57288        2.81255
O          2.39789       -2.48014        1.88331
H          3.85587       -3.33310        0.66393
H          2.32623       -2.63688       -0.13171
H          1.34160       -4.68126       -0.07797
H          2.96542       -5.30353        0.38697
H          1.65323       -3.35724        3.67211
H          3.28928       -3.84733        3.14359
H          0.54068       -4.48361        1.97550
H          1.73445       -5.73590        2.46474
C          2.80555       -1.24135       -6.34686
C          2.34252       -1.84688       -7.64890
C          1.01848       -2.42943       -7.28000
C          0.56931       -1.44515       -6.19176
O          1.67600       -0.76908       -5.59914
H          3.33446       -2.03459       -5.78178
H          3.51579       -0.46308       -6.63092
H          2.14505       -1.00161       -8.33603
H          3.07852       -2.54028       -8.12299
H         -0.04511       -0.74522       -6.71530
H         -0.05376       -1.92266       -5.43598
H          0.35133       -2.44131       -8.15811
H          1.08080       -3.48095       -6.89375
C         -0.11310        3.38245       -2.80007
C         -1.12454        4.02085       -3.80642
C         -2.49726        3.43826       -3.76963
C         -2.30274        2.00299       -4.16568
C         -1.38638        1.23240       -3.16459
N          0.02207        1.79623       -2.88653
C          1.18632        4.14225       -3.17741
C         -0.53538        3.99070       -1.42870
C         -2.26217        1.11716       -1.94210
C         -1.20825       -0.13188       -3.73106
H         -1.55412        3.81020       -1.07658
H          0.20221        3.73679       -0.68614
H         -0.51500        5.09897       -1.43643
H          1.61855        4.62109       -2.29121
H          1.85739        3.56307       -3.82229
H          1.00954        5.11280       -3.69038
H         -0.64937        0.00121       -4.65188
H         -0.62931       -0.65499       -2.99100
H         -2.16862       -0.66221       -3.92043
H         -3.33180        1.12913       -2.21172
H         -2.64675        0.14032       -1.74398
H         -2.34533        2.02585       -1.38829
H         -3.30399        1.53277       -4.26253
H         -2.99468        3.57842       -2.78643
H         -1.23336        5.12087       -3.61579
H         -0.73269        3.89695       -4.80940
H         -3.13977        3.95811       -4.51081
H         -1.85439        1.89462       -5.14479
Li         1.48009        1.24228       -4.82206
C          1.27415        3.61421       -6.83035
C         -0.01160        4.26249       -7.37671
C         -0.90891        3.07201       -7.57448
C          0.00284        1.91062       -7.43867
O          0.92234        2.29655       -6.43356
H          2.00056        3.53402       -7.68148
H          1.75315        4.21590       -6.04647
H         -0.49173        4.95931       -6.66348
H          0.19368        4.80326       -8.32063
H         -0.62035        1.06526       -7.14760
H          0.54885        1.67743       -8.38605
H         -1.56261        3.06912       -6.70627
H         -1.63976        3.07231       -8.43165
C          4.18913        1.90891       -5.71696
C          5.40543        0.95902       -5.61740
C          5.06597        0.09954       -4.43038
C          4.29864        1.08467       -3.64305
O          3.44035        1.80894       -4.51077
H          4.54945        2.95120       -5.87693
H          3.53779        1.65340       -6.56998
H          5.67641        0.40258       -6.53946
H          6.28846        1.56431       -5.31211
H          3.75369        0.58256       -2.81582
H          5.09045        1.77937       -3.27634
H          4.36613       -0.69882       -4.60762
H          5.93421       -0.34690       -3.90025

-H 0
6-31g(d,p)
****
-Li 0
6-31g(d,p)
****
-C 0
6-31g(d,p)
****
-N 0
6-31+g(d,p)
****
-O 0
6-31+g(d,p)
****


