%chk=speciation69.chk
%nprocshared=16
%mem=32GB
#p opt PM7/gen scf=xqc 

 speciation study

0 1
C          0.81228        1.15329       -0.13859
C          1.60468       -0.17556        0.22789
C          1.00697       -1.44947       -0.28461
C         -0.39478       -1.47950        0.24989
C         -1.23257       -0.21229       -0.16564
N         -0.74200        1.19900        0.24700
C          1.66979        2.18791        0.59555
C          1.14758        1.42711       -1.63770
C         -1.44815       -0.36034       -1.68924
C         -2.57375       -0.42236        0.40715
H          0.92235        0.64593       -2.35660
H          0.76313        2.39264       -1.98037
H          2.25421        1.46055       -1.78314
H          2.72412        2.20461        0.22432
H          1.27779        3.17600        0.43030
H          1.82248        1.90907        1.65413
H         -2.60770       -0.36020        1.47787
H         -3.03985        0.45508        0.04192
H         -3.07214       -1.36496        0.08218
H         -2.10440       -1.21557       -1.94908
H         -1.87386        0.58580       -2.01385
H         -0.57882       -0.60725       -2.28069
H         -0.87995       -2.40945       -0.08288
H          1.06273       -1.51576       -1.38556
H          2.66261       -0.14561       -0.12476
H          1.70335       -0.28501        1.30926
H          1.57077       -2.33107        0.09984
H         -0.28688       -1.56040        1.33138
Li        -0.75479        1.22855        2.23674
C         -0.25364        5.24110       -1.34920
C          0.69079        5.83179       -0.29723
C         -0.09343        5.68665        0.94603
C         -1.48397        5.33603        0.50418
O         -1.31142        4.57790       -0.66246
H         -0.68384        6.05575       -1.97191
H          0.30268        4.53089       -1.97765
H          1.52006        5.10771       -0.28486
H          1.42103        6.66908       -0.26630
H         -2.09262        4.78301        1.24931
H         -2.00536        6.29500        0.27976
H          0.28380        4.77352        1.32547
H         -0.00345        6.49344        1.70147
C         -1.36324        3.83757       -3.92394
C         -2.12326        3.48853       -5.18396
C         -1.71185        2.05809       -5.42095
C         -1.00386        1.69882       -4.12096
O         -1.44076        2.64499       -3.13829
H         -0.29952        4.08622       -4.16337
H         -1.78214        4.74776       -3.46169
H         -3.19297        3.45813       -4.91224
H         -2.03765        4.17731       -6.04666
H         -1.16386        0.63067       -3.95657
H          0.09931        1.82698       -4.26295
H         -2.63314        1.44668       -5.56007
H         -1.02121        1.91480       -6.27784
C          0.64177        0.65165        4.80113
C          0.54583        0.22490        6.27210
C         -0.50236       -0.79650        6.62194
C         -1.81160       -0.26211        6.10095
C         -1.76579        0.07869        4.58179
N         -0.76758        1.25810        4.22648
C          1.93826        1.57046        4.89353
C          1.22048       -0.51715        3.94465
C         -1.55871       -1.32871        3.89593
C         -3.18637        0.41730        4.22399
H          1.24810       -1.47285        4.51013
H          0.67375       -0.58928        3.01266
H          2.30420       -0.44929        3.68580
H          2.79674        1.01000        5.35402
H          2.34305        1.87960        3.91694
H          1.82607        2.42101        5.59076
H         -3.51632        1.16957        4.89978
H         -3.25232        0.71395        3.18866
H         -3.88377       -0.43231        4.41696
H         -2.37734       -2.03516        4.15079
H         -1.54281       -1.26592        2.84390
H         -0.70946       -1.95461        4.16707
H         -2.57187       -1.04908        6.32629
H         -0.22850       -1.79104        6.20370
H          1.50522       -0.14945        6.69916
H          0.26705        1.10270        6.79907
H         -0.56185       -0.92900        7.73202
H         -2.10603        0.64796        6.63653
Li        -1.99664        2.71001       -1.03215
C         -0.80378        4.43487        3.70416
C          0.45720        3.72307        3.37471
C          1.57912        4.62894        3.74789
C          0.81744        5.45635        4.77731
O         -0.52985        4.91356        4.96244
H         -1.14093        5.26298        3.09580
H         -1.62596        3.69076        3.71916
H          0.44088        3.06049        4.16586
H          0.46057        3.10870        2.49190
H          1.41248        5.65052        5.68388
H          0.70952        6.45737        4.30053
H          2.46339        4.08470        4.16120
H          1.96318        5.24018        2.89964
C         -4.40262        3.32964        5.12163
C         -4.91058        4.74713        5.11019
C         -4.20282        5.35166        6.30385
C         -3.51532        4.16801        6.94373
O         -3.19723        3.30283        5.88221
H         -5.14260        2.68550        5.67212
H         -4.35093        2.92388        4.09024
H         -4.53922        5.24582        4.18913
H         -6.02292        4.76501        5.13903
H         -2.62116        4.49541        7.51192
H         -4.18630        3.62399        7.65096
H         -3.39275        5.99042        5.89642
H         -4.84043        5.94149        6.99200
C         -5.26822        1.47849       -0.48331
C         -6.80488        1.65266       -0.65824
C         -7.14328        2.52805       -1.83456
C         -6.54873        3.86455       -1.48909
C         -5.00165        3.84213       -1.36497
N         -4.38797        2.71911       -0.59097
C         -5.17661        0.95256        0.97933
C         -4.88955        0.45726       -1.60037
C         -4.36901        3.77344       -2.71186
C         -4.66180        5.19555       -0.73140
H         -5.22739        0.75606       -2.60345
H         -3.84856        0.35164       -1.79104
H         -5.31209       -0.54768       -1.39343
H         -5.47194       -0.11636        1.06107
H         -4.21931        1.17820        1.44222
H         -5.80516        1.53696        1.68351
H         -5.04498        5.27071        0.30641
H         -3.58945        5.35530       -0.74081
H         -5.08496        6.02949       -1.33550
H         -4.65617        4.61993       -3.36304
H         -3.31514        3.83356       -2.46618
H         -4.55814        2.80645       -3.20748
H         -6.85093        4.61171       -2.25128
H         -6.77997        2.15185       -2.80943
H         -7.29795        0.65629       -0.74895
H         -7.27146        2.13163        0.23244
H         -8.24473        2.61639       -1.90945
H         -6.99945        4.19399       -0.52303
Li        -1.22431        3.10991        5.59785
C          0.59596        3.70097        7.87844
C          1.31782        2.65587        8.70108
C          0.17616        1.85198        9.30637
C         -1.05440        2.42262        8.59665
O         -0.55955        3.04031        7.42595
H          0.29813        4.58007        8.49791
H          1.23832        4.04780        7.05972
H          1.83363        2.00760        7.96105
H          2.10812        3.00691        9.39095
H         -1.84149        1.66603        8.44013
H         -1.51512        3.21414        9.23249
H          0.34029        0.78292        9.05075
H          0.05917        1.93661       10.40593

-H 0
6-31g(d,p)
****
-Li 0
6-31g(d,p)
****
-C 0
6-31g(d,p)
****
-N 0
6-31+g(d,p)
****
-O 0
6-31+g(d,p)
****


