%chk=speciation29.chk
%nprocshared=16
%mem=32GB
#p opt PM7/gen scf=xqc 

 speciation study

0 1
C         -1.21029        2.75417       -0.81906
C         -0.40615        3.93072       -0.21790
C          1.10204        3.96895       -0.38375
C          1.64390        2.55001       -0.01949
C          0.86170        1.51666       -0.83245
N         -0.58493        1.41781       -0.32952
C         -2.62017        2.98283       -0.32888
C         -1.46291        2.89174       -2.35212
C          1.25425        1.83045       -2.33166
C          1.34595        0.14181       -0.75984
H         -0.67327        3.21043       -3.01403
H         -1.93972        1.96238       -2.68428
H         -2.14847        3.73333       -2.60462
H         -3.14962        3.86408       -0.75619
H         -3.19443        2.11611       -0.65182
H         -2.60072        3.24364        0.73583
H          0.88373       -0.35757        0.10086
H          0.93541       -0.43331       -1.62477
H          2.45773        0.12188       -0.84031
H          2.32489        1.62311       -2.53110
H          0.68868        1.17667       -2.95598
H          1.20959        2.83594       -2.74297
H          2.73665        2.54655       -0.26302
H          1.34236        4.32775       -1.40049
H         -0.85699        4.93259       -0.40820
H         -0.44627        3.64956        0.80378
H          1.55074        4.72571        0.28870
H          1.51824        2.38430        1.05214
Li        -0.72074        1.14841        2.47854
C          0.37690        3.58288        4.68076
C         -0.40732        4.74578        5.28331
C         -1.06559        5.35877        4.09607
C         -0.52763        4.53971        2.94687
O         -0.16246        3.21669        3.40132
H          1.43360        3.91497        4.52237
H          0.39269        2.83917        5.47349
H         -1.22600        4.35944        5.93994
H          0.21031        5.45229        5.86643
H         -1.35865        4.61724        2.22380
H          0.38664        5.02566        2.53571
H         -2.15843        5.18873        4.19759
H         -0.93368        6.45267        3.95548
C         -3.59855       -2.58195       -1.12827
C         -4.66542       -2.61444       -2.21496
C         -5.21800       -1.22631       -2.22972
C         -4.33942       -0.50616       -1.21689
O         -3.15217       -1.24845       -0.95008
H         -3.96521       -2.97816       -0.15798
H         -2.81862       -3.23471       -1.44650
H         -4.11958       -2.73263       -3.17463
H         -5.41478       -3.43753       -2.18288
H         -4.18450        0.53603       -1.51131
H         -4.95235       -0.53168       -0.30530
H         -5.12529       -0.84271       -3.26330
H         -6.29297       -1.12477       -1.96023
C         -3.93850       -0.71578        3.66137
C         -5.39485       -0.43468        4.21533
C         -6.17220        0.59004        3.43917
C         -5.38024        1.85202        3.57246
C         -3.93038        1.68032        3.01436
N         -3.05912        0.57337        3.52410
C         -3.45202       -1.70609        4.73043
C         -4.01774       -1.54837        2.34846
C         -4.00139        1.46960        1.55609
C         -3.29403        3.01138        3.31942
H         -4.93574       -1.36368        1.76616
H         -3.09669       -1.40301        1.74768
H         -4.10853       -2.64063        2.53742
H         -4.22972       -2.45724        5.00285
H         -2.72598       -2.40580        4.30746
H         -3.15896       -1.18839        5.66877
H         -3.30854        3.23030        4.41376
H         -2.29264        2.87855        2.97854
H         -3.78681        3.85432        2.78195
H         -4.57374        2.28427        1.06741
H         -2.94695        1.25519        1.26630
H         -4.50664        0.58337        1.29450
H         -5.92014        2.66802        3.03039
H         -6.32538        0.29526        2.38203
H         -6.00408       -1.36949        4.22528
H         -5.33700       -0.07233        5.27193
H         -7.18247        0.73903        3.87823
H         -5.36206        2.14731        4.64560
Li        -1.21067       -0.68937       -1.43381
C         -0.40373       -0.48274       -4.43513
C         -0.63766        0.84001       -5.17866
C         -2.13588        0.98029       -5.17615
C         -2.56483       -0.11255       -4.19876
O         -1.42293       -0.56670       -3.47210
H         -0.52635       -1.33505       -5.13909
H          0.60243       -0.61908       -3.99734
H         -0.30273        1.70360       -4.59350
H         -0.12147        0.96616       -6.14757
H         -3.37153        0.28258       -3.57636
H         -2.95180       -0.97436       -4.79870
H         -2.42017        1.99232       -4.80329
H         -2.61508        0.87082       -6.17020
C          1.60153       -2.69937       -0.82983
C          2.12543       -3.26909       -2.12538
C          0.88972       -3.90200       -2.68211
C         -0.12054       -3.72707       -1.56358
O          0.16998       -2.46904       -0.95867
H          1.75813       -3.43120        0.00009
H          2.31167       -1.94479       -0.51402
H          2.45942       -2.46049       -2.81811
H          2.96890       -3.96172       -1.91107
H         -1.08584       -3.86512       -2.01364
H         -0.01521       -4.53501       -0.79027
H          0.53566       -3.25704       -3.51597
H          1.02453       -4.94157       -3.04329
C          0.74556       -1.08713        4.90801
C          1.69952       -2.22587        5.42779
C          3.15028       -1.84108        5.29624
C          3.34582       -1.60815        3.82380
C          2.46083       -0.43414        3.26337
N          0.97306       -0.51566        3.51455
C         -0.56581       -1.74539        4.84820
C          0.68687        0.02918        5.95022
C          3.00273        0.92439        3.72697
C          2.65798       -0.54964        1.80588
H          1.61527        0.13354        6.54370
H          0.53409        0.91863        5.37728
H         -0.15796       -0.07061        6.66765
H         -0.90564       -2.10276        5.85142
H         -1.20932       -0.95904        4.43438
H         -0.53654       -2.62641        4.16154
H          2.14014       -1.48784        1.50960
H          2.21848        0.36147        1.42871
H          3.71758       -0.58856        1.47990
H          4.04791        1.05098        3.37268
H          2.37936        1.73238        3.29066
H          2.98544        1.02322        4.82419
H          4.42356       -1.41368        3.62738
H          3.42181       -0.94738        5.88992
H          1.47944       -2.48026        6.49044
H          1.56290       -3.17166        4.85155
H          3.79827       -2.67937        5.64020
H          3.10977       -2.57352        3.30645
Li        -2.75528        1.11726        5.37882

-H 0
6-31g(d,p)
****
-Li 0
6-31g(d,p)
****
-C 0
6-31g(d,p)
****
-N 0
6-31+g(d,p)
****
-O 0
6-31+g(d,p)
****


