%chk=speciation53.chk
%nprocshared=16
%mem=32GB
#p opt PM7/gen scf=xqc 

 speciation study

0 1
C          0.81581        1.10588        0.13017
C          1.50574       -0.25530        0.50688
C          0.82509       -1.46524       -0.06454
C         -0.55450       -1.43814        0.54584
C         -1.39427       -0.20124        0.07577
N         -0.74200        1.19900        0.24700
C          1.43638        2.12884        1.04807
C          1.39734        1.48155       -1.20486
C         -1.94277       -0.57941       -1.32136
C         -2.59179       -0.21047        0.95122
H          1.56028        0.61691       -1.87017
H          0.75943        2.32192       -1.51548
H          2.46378        1.80364       -1.14692
H          2.54395        2.02575        1.13034
H          1.26945        3.13960        0.66337
H          0.98182        1.94872        2.00784
H         -2.25583       -0.04260        1.95806
H         -3.15058        0.63730        0.64615
H         -3.18996       -1.15175        0.89742
H         -2.67514       -1.41632       -1.26245
H         -2.45542        0.26267       -1.82598
H         -1.19122       -1.11868       -1.91725
H         -1.08117       -2.39210        0.31325
H          0.83124       -1.48297       -1.17127
H          2.58608       -0.26202        0.22869
H          1.50324       -0.42311        1.57073
H          1.36001       -2.37982        0.28554
H         -0.41089       -1.43861        1.63873
Li        -0.75479        1.22855        2.23674
C         -4.25744        3.51525        1.02476
C         -4.98490        2.58591        1.95489
C         -5.48326        1.48619        1.03960
C         -4.89296        1.91801       -0.34430
O         -3.79878        2.78953       -0.09401
H         -4.96555        4.30875        0.67061
H         -3.44962        4.01568        1.56239
H         -4.20394        2.15470        2.59512
H         -5.74764        3.02526        2.63358
H         -4.67704        1.05257       -0.98828
H         -5.69683        2.51615       -0.84882
H         -5.07524        0.52800        1.42894
H         -6.57856        1.32965        1.02524
C         -0.34729        4.78982        1.38305
C         -1.22233        5.74308        2.14230
C         -1.68566        6.66920        1.06337
C         -1.39842        5.88885       -0.23323
O         -0.91136        4.58772        0.07995
H          0.66252        5.25775        1.25831
H         -0.25416        3.87126        1.98839
H         -2.07304        5.16082        2.51433
H         -0.77667        6.23091        3.03997
H         -2.31678        5.87327       -0.84483
H         -0.58244        6.42345       -0.77935
H         -2.76346        6.89683        1.21927
H         -1.09913        7.61530        1.06614
C          0.61034        1.26349        4.91696
C          0.51509        1.25798        6.47047
C         -0.32703        0.12997        7.00900
C         -1.71188        0.32053        6.43654
C         -1.73570        0.25646        4.87959
N         -0.76758        1.25810        4.22648
C          1.41116        2.56531        4.62461
C          1.52206        0.09480        4.49065
C         -1.51369       -1.23133        4.46396
C         -3.19777        0.58998        4.53332
H          1.21003       -0.91261        4.77795
H          1.64198        0.13516        3.42861
H          2.54170        0.19428        4.91810
H          2.35628        2.56507        5.21535
H          1.78578        2.71649        3.61721
H          0.83402        3.46215        4.89997
H         -3.44351        1.63438        4.81276
H         -3.44926        0.41587        3.49303
H         -3.89228       -0.08543        5.08459
H         -2.33276       -1.87107        4.85677
H         -1.52189       -1.37183        3.38788
H         -0.61825       -1.71976        4.85461
H         -2.38176       -0.45565        6.87286
H          0.10241       -0.86113        6.76017
H          1.53018        1.18244        6.92419
H          0.06991        2.21256        6.82119
H         -0.36993        0.19728        8.11776
H         -2.09083        1.30965        6.77898
Li        -1.75332        2.80003       -0.74647
C         -1.23788        5.12753        6.53015
C         -1.90502        4.61576        7.77989
C         -3.37184        4.79137        7.47116
C         -3.37604        5.01469        5.95993
O         -2.08290        4.74667        5.46933
H         -1.13468        6.23583        6.52991
H         -0.22097        4.69854        6.42980
H         -1.70769        3.52265        7.80202
H         -1.54814        5.05813        8.73548
H         -4.18427        4.48103        5.42341
H         -3.54492        6.10464        5.77366
H         -3.90804        3.86231        7.76235
H         -3.82539        5.67313        7.97539
C         -0.45081        1.87868       -4.07998
C         -0.87829        1.67704       -5.55912
C         -1.39081        2.95112       -6.15688
C         -2.62511        3.29256       -5.34696
C         -2.32566        3.56410       -3.83649
N         -1.51447        2.51486       -3.15010
C         -0.27348        0.43905       -3.64766
C          0.94133        2.60947       -4.14531
C         -1.63195        4.91960       -3.68787
C         -3.69426        3.61212       -3.15303
H          0.89908        3.58332       -4.64345
H          1.52425        2.82084       -3.25519
H          1.64351        1.98897       -4.74827
H          0.60504       -0.07949       -4.09077
H         -0.22413        0.48861       -2.59725
H         -1.17969       -0.16947       -3.86020
H         -4.18485        2.61228       -3.22365
H         -3.58018        3.88994       -2.09895
H         -4.35926        4.35943       -3.63331
H         -2.25894        5.73354       -4.10644
H         -1.44468        5.10759       -2.63042
H         -0.65238        4.95699       -4.18284
H         -3.13096        4.16571       -5.80614
H         -0.63149        3.75865       -6.15588
H         -0.03153        1.27017       -6.16141
H         -1.69565        0.92331       -5.65815
H         -1.66230        2.75365       -7.21411
H         -3.32705        2.43125       -5.44024
Li        -1.43360        3.02458        4.85581

-H 0
6-31g(d,p)
****
-Li 0
6-31g(d,p)
****
-C 0
6-31g(d,p)
****
-N 0
6-31+g(d,p)
****
-O 0
6-31+g(d,p)
****


