%chk=speciation10.chk
%nprocshared=16
%mem=32GB
#p opt PM7/gen scf=xqc 

 speciation study

0 1
C          0.78676        1.21536       -0.06955
C          1.60157       -0.03939        0.41964
C          1.01333       -1.36419       -0.00559
C         -0.37685       -1.37816        0.56065
C         -1.26696       -0.22111        0.00667
N         -0.74200        1.19900        0.24700
C          1.43100        2.39341        0.61404
C          1.19593        1.35984       -1.53750
C         -1.56940       -0.51267       -1.46289
C         -2.56197       -0.37655        0.73640
H          1.05256        0.45885       -2.13591
H          0.73526        2.25107       -1.93784
H          2.29616        1.51776       -1.62831
H          2.54459        2.35351        0.58561
H          1.14196        3.30883        0.09301
H          1.08666        2.37099        1.64023
H         -2.39087       -0.21225        1.79489
H         -3.18496        0.38495        0.33804
H         -3.03945       -1.37121        0.58211
H         -2.10491       -1.48009       -1.58479
H         -2.21684        0.27803       -1.81610
H         -0.69363       -0.60802       -2.10367
H         -0.83818       -2.37081        0.33957
H          1.03044       -1.51173       -1.10097
H          2.66448       -0.00491        0.08809
H          1.65040       -0.04694        1.48982
H          1.60609       -2.19869        0.43542
H         -0.27774       -1.30350        1.65806
Li        -0.75479        1.22855        2.23674
C         -2.99701        1.93965       -3.46012
C         -2.22672        1.00053       -4.41096
C         -0.82140        1.53820       -4.32946
C         -1.03658        2.91288       -3.71842
O         -2.04814        2.72329       -2.73757
H         -3.59384        2.64563       -4.07429
H         -3.72596        1.39686       -2.84460
H         -2.22479       -0.07508       -4.11110
H         -2.65203        1.07165       -5.43201
H         -0.12774        3.41163       -3.34329
H         -1.41324        3.60926       -4.49826
H         -0.32346        0.94090       -3.57927
H         -0.20434        1.44130       -5.24886
C         -4.18259        3.35331        1.27058
C         -4.49065        2.13125        2.05932
C         -5.36348        1.34361        1.11827
C         -4.94091        1.91413       -0.24876
O         -3.91138        2.88163       -0.02853
H         -5.05559        4.04625        1.25068
H         -3.31016        3.84258        1.73260
H         -3.49252        1.67829        2.10902
H         -4.89769        2.26128        3.08066
H         -4.66293        1.10981       -0.95060
H         -5.81538        2.42712       -0.70546
H         -5.19779        0.24903        1.26240
H         -6.43787        1.55306        1.29107
C          0.60734        1.28245        4.89342
C          0.54103        1.30072        6.45135
C         -0.29179        0.16520        7.01284
C         -1.67969        0.33448        6.44793
C         -1.71354        0.24642        4.89559
N         -0.76758        1.25810        4.22648
C          1.36233        2.59022        4.54909
C          1.51267        0.10823        4.47945
C         -1.46969       -1.23431        4.46699
C         -3.18076        0.53022        4.55216
H          1.27425       -0.86338        4.91743
H          1.44915       -0.01107        3.42002
H          2.57035        0.27196        4.76542
H          2.32927        2.63326        5.09965
H          1.64948        2.66216        3.50963
H          0.76671        3.48217        4.82841
H         -3.43740        1.58800        4.75989
H         -3.42149        0.23084        3.53704
H         -3.86090       -0.11428        5.15451
H         -2.26268       -1.89217        4.88410
H         -1.51618       -1.35369        3.38169
H         -0.54590       -1.70124        4.81456
H         -2.33843       -0.44712        6.89940
H          0.12929       -0.83199        6.77834
H          1.56172        1.23877        6.88957
H          0.08803        2.25521        6.80506
H         -0.32740        0.24383        8.11980
H         -2.07070        1.32283        6.77932
Li        -1.95782        2.78201       -0.63258
C         -0.56811        4.70178        1.33038
C         -1.14031        5.97590        1.94775
C         -2.19607        6.36457        0.96364
C         -1.69200        5.73424       -0.32940
O         -1.08800        4.50838        0.00802
H          0.52554        4.89344        1.25112
H         -0.74074        3.81708        1.96603
H         -1.52046        5.83832        2.98484
H         -0.34081        6.75145        1.95446
H         -2.52967        5.61028       -1.05347
H         -0.90512        6.36825       -0.79639
H         -3.13260        5.86255        1.24217
H         -2.40513        7.45377        0.92453

-H 0
6-31g(d,p)
****
-Li 0
6-31g(d,p)
****
-C 0
6-31g(d,p)
****
-N 0
6-31+g(d,p)
****
-O 0
6-31+g(d,p)
****


