%chk=speciation94.chk
%nprocshared=16
%mem=32GB
#p opt PM7/gen scf=xqc 

 speciation study

0 1
C         -1.48484       -1.40816        0.95073
C         -2.88912       -1.40149        0.20347
C         -3.74413       -0.18433        0.54680
C         -2.97766        1.03148        0.07454
C         -1.53223        1.11376        0.68182
N         -0.66028       -0.15091        0.62105
C         -1.88847       -1.64936        2.43241
C         -0.61152       -2.66001        0.68055
C         -1.71128        1.61623        2.10477
C         -0.84176        2.18953       -0.13166
H          0.17132       -2.52319       -0.07793
H         -0.00037       -2.90593        1.56030
H         -1.21491       -3.56853        0.47804
H         -2.61571       -0.98919        2.90133
H         -2.38659       -2.64447        2.50758
H         -1.01267       -1.70903        3.06573
H         -1.11781        2.22676       -1.18926
H         -0.98453        3.22117        0.26009
H          0.16727        1.82060       -0.17248
H         -0.75329        1.68638        2.54694
H         -2.18351        2.61908        2.13927
H         -2.33719        0.98957        2.73807
H         -2.97009        0.97526       -1.02350
H         -4.71120       -0.22789       -0.00399
H         -3.45662       -2.33112        0.41617
H         -2.86192       -1.31240       -0.86795
H         -4.00669       -0.11563        1.61425
H         -3.55908        1.95698        0.29719
Li         1.00624        0.13279       -0.99427
C          0.82014       -0.56400        4.54054
C         -0.40857       -0.13140        5.33563
C         -0.35877        1.37453        5.24760
C          0.85507        1.60827        4.36457
O          0.99357        0.43498        3.54731
H          1.71629       -0.56914        5.20630
H          0.74386       -1.59063        4.14954
H         -1.32281       -0.44247        4.79562
H         -0.47339       -0.53892        6.36368
H          0.69102        2.56808        3.86352
H          1.76891        1.72551        4.99456
H         -1.28225        1.71029        4.71516
H         -0.32120        1.94149        6.19339
C          3.02770       -2.51870        3.03266
C          4.28397       -3.32683        2.60932
C          3.94077       -3.81135        1.21887
C          2.45466       -3.49867        1.13538
O          2.20146       -2.29815        1.90089
H          2.43811       -3.15270        3.73254
H          3.31454       -1.58036        3.54326
H          5.21819       -2.71654        2.54608
H          4.47342       -4.15018        3.32423
H          2.15714       -3.47570        0.08748
H          1.88919       -4.33962        1.59367
H          4.46801       -3.18392        0.46501
H          4.25843       -4.85096        0.97857
C          3.31910        2.70993       -0.22517
C          2.12384        3.37028        0.29293
C          1.98697        2.67300        1.74020
C          3.15250        1.57001        2.19312
C          3.79981        0.75017        0.99300
N          2.95438        1.21135       -0.04185
C          4.40740        3.64338        0.57951
C          3.73129        2.81322       -1.65740
C          5.39428        0.89907        1.02497
C          3.71244       -0.68272        0.57727
H          4.72265        2.30602       -1.73444
H          2.98205        2.24394       -2.23439
H          3.84370        3.85375       -2.01947
H          5.45315        3.43101        0.79404
H          4.51911        4.59593        0.01733
H          4.06895        4.05004        1.56349
H          4.24954       -1.24740        1.31565
H          2.71467       -1.01903        0.24139
H          4.27774       -0.83399       -0.38167
H          5.74049        0.94682        2.08595
H          5.97844        0.02767        0.65301
H          5.87151        1.60849        0.35902
H          3.94533        2.22551        2.58436
H          1.92015        3.49689        2.47743
H          2.14470        4.48438        0.32654
H          1.39185        3.24083       -0.50137
H          1.04786        2.14596        1.69918
H          3.08623        0.96322        3.10264
Li         1.41434       -0.16259        1.50529
C         -1.46448        3.01366       -5.31805
C         -2.00923        4.40915       -5.07804
C         -0.82070        5.05578       -4.46024
C         -0.31592        3.90477       -3.58957
O         -0.46570        2.71019       -4.34781
H         -2.33339        2.32889       -5.27449
H         -0.96709        3.02258       -6.29249
H         -2.40683        4.90406       -5.99717
H         -2.82685        4.36243       -4.32222
H          0.72199        4.09077       -3.25608
H         -0.98316        3.82983       -2.70273
H         -0.07324        5.26814       -5.25376
H         -1.07146        5.99596       -3.91816
C          3.58251        0.88205       -6.32236
C          4.92116        0.71888       -5.55567
C          4.74360        1.66079       -4.39182
C          3.57538        2.53395       -4.85842
O          2.68844        1.65974       -5.51791
H          3.80299        1.46427       -7.24565
H          3.17233       -0.09793       -6.63850
H          5.12153       -0.30915       -5.17558
H          5.77681        1.00300       -6.20307
H          3.06111        3.12973       -4.09740
H          3.96523        3.28828       -5.57796
H          4.39001        1.05570       -3.54705
H          5.67236        2.15458       -4.03137
C         -0.73859       -1.18395       -3.34129
C         -1.02143       -1.93751       -4.64070
C         -0.03917       -3.05255       -4.92188
C          1.35400       -2.41876       -4.93083
C          1.66903       -1.73038       -3.56221
N          0.67026       -0.63761       -3.21228
C         -1.69243        0.01474       -3.21662
C         -1.09352       -2.11246       -2.24203
C          1.90194       -2.79913       -2.48048
C          2.99782       -1.05826       -3.64925
H         -0.61561       -3.08763       -2.15546
H         -0.88248       -1.49301       -1.41358
H         -2.15567       -2.45482       -2.35686
H         -2.75961       -0.28403       -3.20172
H         -1.41520        0.54476       -2.32741
H         -1.53054        0.66986       -4.06362
H          2.83950       -0.28063       -4.36069
H          3.27339       -0.61718       -2.66874
H          3.78920       -1.75533       -3.99982
H          2.86686       -3.32798       -2.62826
H          1.92964       -2.25297       -1.53226
H          1.22220       -3.65609       -2.45141
H          2.10071       -3.20087       -5.17160
H         -0.13730       -3.87109       -4.18898
H         -2.07842       -2.31586       -4.67569
H         -0.87653       -1.27240       -5.41083
H         -0.27804       -3.48800       -5.91982
H          1.38110       -1.66063       -5.74662
Li         0.73784        1.07289       -4.86163
C          0.44418        0.79188       -7.88878
C         -0.57115        1.63298       -8.67040
C         -1.90569        1.17838       -8.13651
C         -1.50615        0.30751       -6.97596
O         -0.13948        0.53132       -6.63995
H          0.61293       -0.18144       -8.40230
H          1.40392        1.32593       -7.81906
H         -0.41720        2.67951       -8.33064
H         -0.46876        1.62895       -9.77023
H         -2.22694        0.36357       -6.14850
H         -1.57310       -0.74988       -7.33787
H         -2.50129        2.05560       -7.80806
H         -2.50483        0.56796       -8.83401

-H 0
6-31g(d,p)
****
-Li 0
6-31g(d,p)
****
-C 0
6-31g(d,p)
****
-N 0
6-31+g(d,p)
****
-O 0
6-31+g(d,p)
****


