%chk=speciation70.chk
%nprocshared=16
%mem=32GB
#p opt PM7/gen scf=xqc 

 speciation study

0 1
C 0.66834 0.82614 -0.38363
C 1.24686 -0.55302 0.00127
C 0.73972 -1.70198 -0.85386
C -0.74984 -1.79444 -0.60581
C -1.51056 -0.38781 -0.88906
N -0.85197 0.88051 -0.24623
C 1.24651 1.89592 0.53824
C 1.27506 1.18945 -1.72347
C -1.62821 -0.49353 -2.41865
C -3.00640 -0.31894 -0.54631
H 1.18903 0.40540 -2.48129
H 0.83811 2.15128 -1.97459
H 2.37809 1.31804 -1.67082
H 2.35082 1.98902 0.46013
H 0.79882 2.84408 0.20641
H 1.04383 1.67747 1.58356
H -3.16790 0.16223 0.42437
H -3.53255 0.41978 -1.18446
H -3.52392 -1.29342 -0.68898
H -2.23970 -1.38067 -2.72414
H -2.19219 0.36636 -2.84182
H -0.67547 -0.73172 -2.91037
H -1.18470 -2.62786 -1.18822
H 1.01167 -1.59733 -1.91731
H 2.35469 -0.54722 -0.07930
H 0.92220 -0.77732 1.02585
H 1.22660 -2.65106 -0.53142
H -0.72287 -2.21200 0.39192
Li -0.44514 0.81481 2.39618
C 1.60543 -1.02360 4.48502
C 2.89929 -0.56568 5.09027
C 3.70405 -0.38127 3.83410
C 2.67837 -0.51042 2.70542
O 1.40314 -0.24764 3.27832
H 1.69444 -2.12365 4.26648
H 0.87433 -0.98344 5.25367
H 2.96717 0.24054 5.86195
H 2.40378 0.43663 5.10727
H 2.97950 0.13618 1.87529
H 2.67664 -1.57996 2.34034
H 4.14538 0.63514 3.85242
H 4.49712 -1.15250 3.73111
C 0.45065 4.12210 2.66434
C 1.55089 4.41846 3.65649
C 1.10551 3.59308 4.83797
C -0.28948 3.18521 4.44563
O -0.21379 2.90588 3.07670
H -0.24664 4.99243 2.79535
H 0.71606 4.25964 1.62057
H 2.53088 4.04904 3.29483
H 1.59007 5.51513 3.85674
H -0.60354 2.37011 5.02710
H -1.05542 3.97957 4.63365
H 1.69733 2.65542 4.81804
H 1.17781 4.07582 5.83256
C -2.44965 0.11429 5.11498
C -3.45713 -0.85953 5.81325
C -3.16928 -2.33240 5.53509
C -3.22593 -2.48333 4.04563
C -2.14983 -1.66134 3.34259
N -2.15331 -0.18739 3.66188
C -3.12930 1.50597 5.21673
C -1.20918 0.07230 6.01428
C -0.81797 -2.37540 3.51188
C -2.45386 -1.71954 1.92672
H -0.92077 -0.95478 6.27334
H -0.34231 0.54928 5.55948
H -1.38893 0.57800 6.98513
H -3.22568 1.84501 6.25295
H -2.62007 2.26522 4.63409
H -4.15145 1.46020 4.76914
H -3.41551 -1.28857 1.78749
H -1.73967 -0.99052 1.52301
H -2.45174 -2.74939 1.49803
H -0.89088 -3.44040 3.20571
H -0.06915 -1.94868 2.82722
H -0.52956 -2.39476 4.56432
H -3.17118 -3.55352 3.74112
H -2.20331 -2.69441 5.93713
H -3.48323 -0.69575 6.91637
H -4.47066 -0.64407 5.45501
H -3.96285 -2.96394 5.98531
H -4.17671 -2.08922 3.71732
Li -2.19050 2.92040 -1.41169
C -5.95603 3.23583 -1.64280
C -7.06294 3.49596 -0.57624
C -6.74167 2.47489 0.48288
C -5.45825 1.75846 -0.04812
O -4.80032 2.55537 -1.08518
H -6.38952 2.57780 -2.42260
H -5.75244 4.21404 -2.10164
H -6.68825 4.51144 -0.33700
H -7.61921 4.32114 -0.06183
H -4.81824 1.56047 0.82440
H -5.77828 0.77706 -0.46462
H -7.55742 1.94746 1.02980
H -6.55408 3.04999 1.38849
C -1.82877 6.46390 -0.68447
C -1.05545 7.49470 -1.56235
C 0.28917 6.85855 -1.69734
C 0.18776 5.56871 -0.83752
O -1.19653 5.14753 -0.84229
H -1.72161 6.79560 0.38556
H -2.87875 6.55924 -0.96455
H -1.50898 7.60655 -2.62546
H -1.08453 8.55391 -1.16214
H 0.90386 4.79788 -1.17649
H 0.46469 5.88309 0.16806
H 0.44793 6.57904 -2.76169
H 1.14993 7.53506 -1.43997
C -0.67857 2.60876 -4.68217
C -0.99987 2.62831 -6.19693
C -1.53453 3.96402 -6.62754
C -2.81069 4.17740 -5.84883
C -2.59256 4.17539 -4.31145
N -1.85434 2.98829 -3.77193
C -0.38100 1.16658 -4.44108
C 0.65033 3.41769 -4.43039
C -1.90407 5.43527 -3.87993
C -3.95796 4.20534 -3.69157
H 0.67339 4.42295 -4.85939
H 0.92226 3.54586 -3.38132
H 1.49405 2.90960 -4.93851
H 0.55858 0.79210 -4.88694
H -0.35599 1.22495 -3.40239
H -1.22419 0.52496 -4.77127
H -4.57312 3.33950 -4.01247
H -3.77363 4.16716 -2.60302
H -4.50028 5.14675 -3.93835
H -2.37587 6.35692 -4.26758
H -2.02610 5.44095 -2.82270
H -0.84302 5.47172 -4.06498
H -3.28161 5.13514 -6.16394
H -0.80148 4.77757 -6.46351
H -0.09842 2.35886 -6.78400
H -1.78755 1.87073 -6.43294
H -1.76856 3.91624 -7.71281
H -3.51125 3.35920 -6.11908
Li -3.77901 0.60121 2.64997
C -6.60264 -0.31601 3.11439
C -6.81020 -1.65462 3.81946
C -6.50407 -2.68926 2.78353
C -5.83180 -1.80974 1.67279
O -5.51655 -0.48078 2.23590
H -7.50809 -0.03572 2.52771
H -6.43412 0.50981 3.84778
H -6.04813 -1.70995 4.61423
H -7.76809 -1.79374 4.36315
H -5.03676 -2.32171 1.15517
H -6.58812 -1.61972 0.87273
H -5.77123 -3.42037 3.21857
H -7.33221 -3.23068 2.37010
C -4.28680 3.50808 2.68152
C -4.40092 4.42259 1.45874
C -3.24514 4.04268 0.63913
C -2.37323 3.37995 1.59295
O -3.25131 2.59700 2.40314
H -3.97308 4.13158 3.54360
H -5.21754 2.98812 2.96671
H -4.66105 5.48402 1.64694
H -5.09780 4.18819 0.74043
H -1.55716 2.79027 1.11128
H -1.97238 4.21166 2.16434
H -3.29963 3.13080 0.12894
H -3.21977 4.67236 -0.22826

-H 0
6-31g(d,p)
****
-Li 0
6-31g(d,p)
****
-C 0
6-31g(d,p)
****
-N 0
6-31+g(d,p)
****
-O 0
6-31+g(d,p)
****


