%chk=speciation59.chk
%nprocshared=16
%mem=32GB
#p opt PM7/gen scf=xqc 

 speciation study

0 1
C          0.76528        0.86700       -0.40514
C          1.37456       -0.51687       -0.14973
C          0.67905       -1.69579       -0.81241
C         -0.77025       -1.70489       -0.31215
C         -1.45565       -0.32129       -0.44512
N         -0.69946        0.90521        0.03872
C          1.46367        1.90480        0.46593
C          1.17304        1.27192       -1.87298
C         -1.67780       -0.12148       -1.85319
C         -2.82605       -0.45678        0.19974
H          1.06839        0.51037       -2.66485
H          0.73323        2.23248       -2.19716
H          2.28324        1.39006       -1.91191
H          2.55459        1.95452        0.27035
H          1.01430        2.84308        0.17851
H          1.26890        1.75162        1.54291
H         -2.73821       -0.54164        1.30060
H         -3.43872        0.36890       -0.12025
H         -3.36438       -1.34867       -0.19588
H         -2.39532       -0.85478       -2.28582
H         -1.95321        0.91433       -1.95007
H         -0.73014       -0.23062       -2.32593
H         -1.31829       -2.49867       -0.87617
H          0.78071       -1.63641       -1.91359
H          2.45997       -0.56312       -0.39207
H          1.16988       -0.62214        0.89704
H          1.16474       -2.66184       -0.53996
H         -0.86921       -2.00922        0.73443
Li        -0.57989        1.05339        2.38140
C         -1.71674        3.91621        3.62714
C         -1.19895        4.16079        5.00868
C         -2.03818        3.19828        5.82385
C         -2.66811        2.28565        4.73331
O         -1.93800        2.51463        3.51513
H         -2.66807        4.49387        3.63242
H         -1.10682        4.32162        2.82987
H         -0.14681        3.81769        4.97993
H         -1.24119        5.22044        5.35988
H         -2.76165        1.22008        5.03197
H         -3.71426        2.61358        4.57646
H         -1.34469        2.72086        6.53828
H         -2.84274        3.67291        6.42441
C         -5.06815        3.23896       -0.34360
C         -5.47432        4.06103        0.89014
C         -4.68763        3.42050        1.98042
C         -4.07761        2.20720        1.31353
O         -3.84364        2.57218       -0.04648
H         -5.81763        2.45224       -0.58587
H         -5.04042        3.89010       -1.20066
H         -5.05662        5.07165        0.73103
H         -6.52462        4.31932        1.16267
H         -3.20425        1.78690        1.80840
H         -4.83881        1.38049        1.34440
H         -3.88113        4.12874        2.13358
H         -5.24581        3.23476        2.92321
C          2.04907       -1.24307        3.20060
C          2.86242       -1.81586        4.39606
C          1.96399       -2.36259        5.48510
C          1.15042       -1.19871        5.97124
C          0.28643       -0.54066        4.85744
N          0.99431       -0.19139        3.59855
C          3.16356       -0.55959        2.36198
C          1.47441       -2.52632        2.50433
C         -0.99219       -1.35963        4.53381
C         -0.12260        0.76012        5.47651
H          0.87526       -3.18590        3.14254
H          0.81199       -2.39416        1.69404
H          2.29076       -3.16112        2.10626
H          3.85753       -1.29213        1.89798
H          2.87089        0.16795        1.62632
H          3.73366        0.10808        3.00121
H          0.73517        1.37677        5.80274
H         -0.53303        1.30029        4.65674
H         -0.81671        0.58533        6.32606
H         -1.58176       -1.53462        5.45577
H         -1.64471       -0.82195        3.81212
H         -0.78824       -2.36106        4.11137
H          0.52459       -1.49746        6.83284
H          1.31487       -3.19899        5.16946
H          3.55589       -2.60993        4.03806
H          3.49454       -1.02350        4.85120
H          2.60517       -2.74358        6.30766
H          1.89296       -0.45560        6.34474
Li        -1.86688        2.70911       -0.86965
C         -1.99563        5.53457        0.24287
C         -1.39025        6.83362       -0.28118
C          0.08921        6.63362       -0.08726
C          0.16610        5.21618        0.44427
O         -1.03498        4.50956        0.04554
H         -2.18404        5.65474        1.33250
H         -2.96459        5.31586       -0.21486
H         -1.56422        6.90243       -1.37318
H         -1.80794        7.75126        0.18311
H          1.15394        4.81598        0.17707
H          0.19309        5.30160        1.55515
H          0.58979        6.66962       -1.07961
H          0.58366        7.37015        0.59041
C          3.34413        3.84293        4.01425
C          4.02357        3.66058        2.67759
C          5.06632        2.60258        2.95469
C          4.72365        2.15391        4.37533
O          3.43183        2.59767        4.67486
H          3.89961        4.58657        4.62940
H          2.30059        4.20887        3.90205
H          3.25759        3.20219        2.02625
H          4.39130        4.58615        2.18420
H          4.87232        1.06979        4.54931
H          5.40283        2.66162        5.09300
H          4.93620        1.80028        2.19501
H          6.11730        2.95654        2.91782
C         -2.37844        4.11903       -3.85567
C         -2.53736        4.29174       -5.39559
C         -3.52964        3.30764       -5.97293
C         -2.89476        1.99367       -5.76581
C         -2.61658        1.58982       -4.27733
N         -2.01124        2.71958       -3.37190
C         -1.26603        5.07842       -3.43785
C         -3.68391        4.64574       -3.23086
C         -3.95631        1.13569       -3.63384
C         -1.66698        0.35426       -4.66004
H         -4.56887        4.01027       -3.40507
H         -3.51623        4.81620       -2.17140
H         -3.95195        5.64280       -3.64856
H         -1.54734        6.13158       -3.66982
H         -1.08864        4.97311       -2.35891
H         -0.31770        4.84265       -3.95859
H         -0.71417        0.70977       -5.10772
H         -1.36190       -0.53271       -4.12400
H         -2.18267       -0.28622       -5.41584
H         -4.35534        0.21848       -4.11038
H         -3.90112        0.94255       -2.54841
H         -4.72375        1.91730       -3.70545
H         -3.51842        1.21039       -6.27088
H         -4.53893        3.34632       -5.52387
H         -2.88351        5.31523       -5.65342
H         -1.55241        4.16220       -5.89915
H         -3.63513        3.46392       -7.07006
H         -1.94325        2.03619       -6.35857
Li         2.20308        1.28154        4.07814

-H 0
6-31g(d,p)
****
-Li 0
6-31g(d,p)
****
-C 0
6-31g(d,p)
****
-N 0
6-31+g(d,p)
****
-O 0
6-31+g(d,p)
****


