%chk=speciation54.chk
%nprocshared=16
%mem=32GB
#p opt PM7/gen scf=xqc 

 speciation study

0 1
C          0.72837        1.23199       -0.24366
C          1.57377       -0.05965        0.06723
C          0.89559       -1.36910       -0.24821
C         -0.48178       -1.33542        0.40358
C         -1.34623       -0.13671       -0.09695
N         -0.74200        1.19900        0.24700
C          1.49098        2.33408        0.46862
C          0.89068        1.59652       -1.74535
C         -1.57690       -0.33876       -1.61516
C         -2.69481       -0.20723        0.59949
H          0.61822        0.83935       -2.47919
H          0.36044        2.54328       -1.96328
H          1.96545        1.76397       -1.98423
H          2.57505        2.32938        0.20993
H          1.12494        3.30203        0.15942
H          1.39988        2.17284        1.53731
H         -2.58323       -0.08482        1.67877
H         -3.30380        0.63197        0.28243
H         -3.21797       -1.16523        0.38491
H         -2.22314       -1.22494       -1.79812
H         -1.97739        0.58508       -2.04826
H         -0.71784       -0.60026       -2.22664
H         -0.99190       -2.30408        0.20210
H          0.86538       -1.54569       -1.33636
H          2.57150       -0.02668       -0.42479
H          1.81415       -0.10788        1.12528
H          1.49435       -2.21006        0.16996
H         -0.30715       -1.25365        1.48627
Li        -0.75479        1.22855        2.23674
C         -0.06872        5.12524        1.27662
C         -0.56796        6.51731        1.64398
C         -0.89958        7.06600        0.26018
C         -0.40615        5.97618       -0.67727
O         -0.66783        4.76798        0.01673
H          1.03624        5.23293        1.13865
H         -0.02725        4.37011        2.03984
H         -1.50055        6.57854        2.24450
H          0.20708        7.08312        2.19661
H         -0.89101        6.10624       -1.64714
H          0.68714        6.09282       -0.85579
H         -1.99485        7.03586        0.18132
H         -0.56059        8.09429        0.07091
C         -3.92391        4.42974        4.42068
C         -4.55108        3.36432        3.53634
C         -3.38229        2.92759        2.69164
C         -2.30047        3.86385        3.07672
O         -2.52070        4.25252        4.40198
H         -4.10987        5.42312        3.94977
H         -4.38095        4.50429        5.42142
H         -4.91260        2.49949        4.12988
H         -5.39226        3.79174        2.95853
H         -1.34439        3.32169        3.02429
H         -2.37244        4.72476        2.41255
H         -2.99489        2.01625        3.07789
H         -3.53661        2.73484        1.61431
C          0.66058        1.15826        4.73378
C          0.76289        0.90852        6.26949
C         -0.01869       -0.30472        6.73774
C         -1.45271       -0.10884        6.32784
C         -1.62699        0.06633        4.79119
N         -0.76758        1.25810        4.22648
C          1.39251        2.48874        4.49063
C          1.45333        0.05323        4.00963
C         -1.40691       -1.32685        4.12329
C         -3.16205        0.26709        4.66292
H          1.31373       -0.96025        4.38870
H          1.14333        0.06846        2.97332
H          2.55227        0.17846        4.11245
H          2.44923        2.40859        4.83406
H          1.41524        2.77707        3.44415
H          0.90847        3.31627        5.04551
H         -3.47407        1.20680        5.15567
H         -3.54448        0.16649        3.63119
H         -3.72296       -0.54509        5.18140
H         -2.12587       -2.06958        4.53703
H         -1.63141       -1.30302        3.06258
H         -0.45706       -1.83509        4.27265
H         -2.04666       -0.97458        6.70292
H          0.37718       -1.25383        6.32987
H          1.82402        0.78899        6.58223
H          0.35730        1.77926        6.80389
H          0.03440       -0.38295        7.84679
H         -1.84768        0.77322        6.85297
Li        -1.68106        2.96181       -0.65791
C         -3.14013        3.45922        7.74091
C         -3.03875        4.95249        8.05102
C         -1.54676        5.19770        8.06507
C         -0.96342        3.80916        7.96142
O         -1.89308        3.03563        7.23414
H         -3.30408        2.90439        8.69287
H         -3.99814        3.18983        7.09780
H         -3.46718        5.58027        7.24042
H         -3.55785        5.18559        9.00584
H          0.04399        3.83965        7.50077
H         -0.86044        3.35029        8.97314
H         -1.28695        5.70858        7.11201
H         -1.16264        5.80374        8.91500
C         -4.62546        2.02720       -2.30473
C         -5.61440        2.48928       -3.41863
C         -4.95413        2.60573       -4.77548
C         -3.91545        3.69218       -4.61840
C         -2.81086        3.30079       -3.59333
N         -3.31690        2.81423       -2.26372
C         -5.37563        2.25260       -0.98257
C         -4.44385        0.50087       -2.51321
C         -1.86077        2.28149       -4.25736
C         -2.03019        4.56928       -3.31314
H         -5.42062       -0.01380       -2.63000
H         -4.03719        0.01863       -1.62989
H         -3.84950        0.24179       -3.40859
H         -6.30821        1.64796       -0.94510
H         -4.77016        1.99222       -0.11303
H         -5.63453        3.32462       -0.86512
H         -2.69989        5.30755       -2.80879
H         -1.19358        4.29656       -2.64896
H         -1.63075        5.03661       -4.23791
H         -1.44038        2.70316       -5.19830
H         -1.01343        2.04931       -3.60219
H         -2.35667        1.33540       -4.52274
H         -3.46386        3.93106       -5.60724
H         -4.52105        1.64698       -5.12779
H         -6.48262        1.79450       -3.48872
H         -6.04004        3.48437       -3.16395
H         -5.71064        2.92368       -5.52524
H         -4.44520        4.61546       -4.28774
Li        -1.73494        2.79653        5.30641

-H 0
6-31g(d,p)
****
-Li 0
6-31g(d,p)
****
-C 0
6-31g(d,p)
****
-N 0
6-31+g(d,p)
****
-O 0
6-31+g(d,p)
****


