%chk=speciation98.chk
%nprocshared=16
%mem=32GB
#p opt PM7/gen scf=xqc 

 speciation study

0 1
C         -1.89515       -1.50403        0.07913
C         -2.88227       -0.38721       -0.33989
C         -3.51107        0.31150        0.89695
C         -2.42175        0.82365        1.85246
C         -1.30426       -0.23881        2.12598
N         -0.80548       -0.83121        0.81331
C         -2.72418       -2.62689        0.77905
C         -1.15796       -2.22771       -1.02380
C         -1.93127       -1.19099        3.19696
C         -0.04703        0.23574        2.86462
H         -0.35876       -1.63264       -1.49223
H         -0.57840       -2.98638       -0.55661
H         -1.83734       -2.74513       -1.72303
H         -3.21403       -3.27757        0.01922
H         -2.10638       -3.21310        1.46048
H         -3.61267       -2.31875        1.33523
H          0.62501        0.73617        2.19870
H         -0.26785        0.87523        3.74173
H          0.54004       -0.65265        3.20977
H         -1.31704       -2.08706        3.39193
H         -2.03871       -0.64086        4.16114
H         -2.97798       -1.46847        3.03256
H         -2.06181        1.65453        1.35485
H         -4.14382        1.16226        0.55655
H         -3.69411       -0.78827       -0.98087
H         -2.32459        0.40389       -0.86735
H         -4.19565       -0.35073        1.44558
H         -2.84503        1.25869        2.77860
Li         1.14974       -1.67363        1.11045
C          1.38967       -4.60336       -0.37721
C          0.13845       -5.44881       -0.64554
C         -0.59882       -5.40510        0.67255
C          0.32185       -4.55149        1.57308
O          1.07378       -3.72837        0.71663
H          2.20275       -5.29256       -0.05533
H          1.72086       -4.08303       -1.30124
H         -0.49203       -4.93784       -1.41137
H          0.31078       -6.46828       -1.05482
H         -0.23653       -3.95778        2.32161
H          1.00994       -5.21307        2.11343
H         -1.55735       -4.91675        0.44628
H         -0.87165       -6.37410        1.13392
C         -1.27337       -1.38435       -3.90906
C         -1.54978       -0.73414       -5.25127
C         -2.55445        0.34859       -4.90514
C         -2.75554        0.16558       -3.40669
O         -1.52652       -0.39856       -2.91803
H         -2.02313       -2.20834       -3.78945
H         -0.27079       -1.84907       -3.84970
H         -0.62145       -0.24212       -5.60336
H         -1.88488       -1.46550       -6.02014
H         -3.05462        1.12633       -2.93127
H         -3.59075       -0.54601       -3.22579
H         -2.04927        1.32416       -5.08662
H         -3.50238        0.32732       -5.47928
C          3.89023       -1.70023        1.79464
C          4.03151       -2.00129        0.28312
C          3.91739       -0.68448       -0.53731
C          4.32748        0.62090        0.23391
C          3.72466        0.77688        1.68415
N          2.94955       -0.50792        1.90748
C          5.37743       -1.56239        2.31751
C          3.34153       -2.82491        2.65551
C          4.85080        1.18775        2.73054
C          2.79968        2.01484        1.91440
H          3.35829       -2.49977        3.71642
H          2.29785       -3.02019        2.44386
H          3.95054       -3.74578        2.55748
H          5.44094       -1.44878        3.41228
H          5.92324       -2.50938        2.13286
H          5.99849       -0.80712        1.78882
H          3.31674        2.97618        1.71797
H          1.91811        2.08896        1.35099
H          2.43588        2.01417        2.97342
H          5.76380        1.57382        2.22312
H          4.61550        2.06667        3.38020
H          5.02161        0.51343        3.56630
H          3.87796        1.41574       -0.32440
H          4.41005       -0.78271       -1.52984
H          4.99113       -2.52910        0.06901
H          3.24082       -2.66650       -0.08099
H          2.84153       -0.60873       -0.77657
H          5.43127        0.72301        0.22686
Li        -0.12156        0.33982       -1.22320
C          2.47424        2.83739       -2.33902
C          2.54985        1.66367       -3.34841
C          1.19076        0.88688       -3.31592
C         -0.00097        1.86185       -2.91394
C          0.19182        2.59993       -1.52886
N          1.57146        2.29904       -1.22538
C          1.97916        4.13484       -3.14661
C          3.84052        3.40753       -1.86342
C         -0.48939        4.02904       -1.63325
C         -0.27925        2.22413       -0.11015
H          3.63166        4.16941       -1.07567
H          4.62709        2.74289       -1.51732
H          4.38037        3.93395       -2.68238
H          2.02893        5.03977       -2.50413
H          2.65961        4.35293       -3.99136
H          1.01605        4.17608       -3.67441
H          0.03387        1.26790        0.29584
H          0.32284        2.89480        0.52590
H         -0.95705        2.86022        0.45020
H         -1.29729        3.97429       -2.39860
H         -1.12115        4.37642       -0.78769
H          0.13480        4.90722       -1.76509
H         -1.01126        1.64454       -2.96086
H          1.06979        0.35441       -4.27976
H          2.78854        2.04621       -4.36211
H          3.36075        0.94443       -3.08206
H          1.27855        0.09138       -2.54239
H         -0.00193        2.51199       -3.78915
Li         2.04437        0.70465        0.25063

-H 0
6-31g(d,p)
****
-Li 0
6-31g(d,p)
****
-C 0
6-31g(d,p)
****
-N 0
6-31+g(d,p)
****
-O 0
6-31+g(d,p)
****


