%chk=speciation40.chk
%nprocshared=16
%mem=32GB
#p opt PM7/gen scf=xqc 

 speciation study

0 1
C          0.75302        1.19268       -0.15090
C          1.50805       -0.13350        0.21469
C          0.82241       -1.39157       -0.24485
C         -0.57973       -1.36002        0.33251
C         -1.39000       -0.11976       -0.15955
N         -0.74200        1.19900        0.24700
C          1.52393        2.25273        0.62809
C          1.02681        1.50373       -1.63726
C         -1.66167       -0.26217       -1.68491
C         -2.76236       -0.22252        0.47920
H          0.84412        0.69494       -2.34794
H          0.47286        2.39679       -1.92236
H          2.10613        1.71819       -1.80151
H          2.62272        2.15924        0.47681
H          1.31054        3.27108        0.31535
H          1.30712        2.08718        1.67767
H         -2.66833       -0.17171        1.56154
H         -3.39187        0.58348        0.09515
H         -3.25686       -1.18860        0.23132
H         -2.25022       -1.18540       -1.87958
H         -2.23216        0.59733       -2.07216
H         -0.79077       -0.42185       -2.31818
H         -1.09282       -2.30936        0.06479
H          0.82653       -1.48313       -1.34620
H          2.55318       -0.12314       -0.17181
H          1.59587       -0.22557        1.29689
H          1.37528       -2.27413        0.15402
H         -0.47880       -1.33606        1.43396
Li        -0.75479        1.22855        2.23674
C         -1.07643        3.85451       -3.23953
C         -1.90504        4.89528       -3.98988
C         -3.32245        4.43402       -3.74041
C         -3.14022        3.02230       -3.22653
O         -1.95560        3.06099       -2.46597
H         -0.60568        3.17117       -3.99073
H         -0.26251        4.33568       -2.66177
H         -1.78354        5.91689       -3.56696
H         -1.60924        4.89803       -5.06301
H         -4.01737        2.68539       -2.63920
H         -2.99253        2.30923       -4.07392
H         -3.70425        5.01540       -2.87438
H         -4.01971        4.56500       -4.59744
C          0.59231        1.20072        4.89108
C          0.50591        1.14227        6.44420
C         -0.41110        0.04017        6.94192
C         -1.78789        0.31547        6.36757
C         -1.78308        0.30132        4.81642
N         -0.76758        1.25810        4.22648
C          1.37040        2.50441        4.60353
C          1.44767        0.02596        4.37637
C         -1.63133       -1.16019        4.31101
C         -3.17971        0.75590        4.40007
H          1.12430       -0.97062        4.69556
H          1.46030        0.04856        3.29015
H          2.49501        0.09982        4.73708
H          2.36740        2.47524        5.09859
H          1.56641        2.67931        3.55231
H          0.81955        3.38709        4.98305
H         -3.37890        1.79975        4.71486
H         -3.25828        0.68481        3.32695
H         -3.96861        0.09702        4.82640
H         -2.48751       -1.77852        4.65775
H         -1.63244       -1.19709        3.21648
H         -0.75538       -1.70464        4.67472
H         -2.51108       -0.43334        6.76261
H         -0.03836       -0.96520        6.66331
H          1.51846        1.00956        6.88701
H          0.09898        2.10329        6.83032
H         -0.45956        0.07681        8.05178
H         -2.11655        1.31562        6.73180
Li        -1.88412        2.78973       -0.49941
C         -4.25091        3.96217        1.34176
C         -4.42730        4.50565        2.78927
C         -3.77273        5.87199        2.96417
C         -2.28598        5.69096        2.72410
C         -1.98953        5.17189        1.29209
N         -2.80616        3.97567        0.93433
C         -4.75102        2.51935        1.33453
C         -5.15826        4.71379        0.35594
C         -2.12480        6.28943        0.23998
C         -0.53839        4.73717        1.27528
H         -4.96009        5.78919        0.29470
H         -5.07051        4.27547       -0.66169
H         -6.21895        4.61966        0.68218
H         -5.77827        2.43563        1.75209
H         -4.77596        2.12852        0.30066
H         -4.08339        1.90930        1.94038
H         -0.37652        3.88434        1.97239
H         -0.32462        4.43755        0.23340
H          0.15235        5.56090        1.56561
H         -1.41973        7.11727        0.47645
H         -1.86862        5.89845       -0.76989
H         -3.12230        6.74043        0.19883
H         -1.73836        6.64198        2.91317
H         -4.20785        6.62835        2.28210
H         -5.50525        4.56326        3.05561
H         -3.95006        3.81093        3.51587
H         -3.92945        6.22505        4.00705
H         -1.91911        4.95421        3.47462
Li        -1.44282        3.00501        4.77748

-H 0
6-31g(d,p)
****
-Li 0
6-31g(d,p)
****
-C 0
6-31g(d,p)
****
-N 0
6-31+g(d,p)
****
-O 0
6-31+g(d,p)
****


