%chk=speciation66.chk
%nprocshared=16
%mem=32GB
#p opt PM7/gen scf=xqc 

 speciation study

0 1
C -1.11573 -0.34945 -0.20768
C -0.47495 -1.69825 0.40644
C -0.27332 -1.63698 1.80768
C 0.47968 -0.31388 1.88836
C -0.45602 1.10256 1.61441
N -0.74200 1.19900 0.24700
C -0.68685 -0.60524 -1.60315
C -2.57768 -0.71037 -0.11676
C -1.81208 1.28266 2.31152
C 0.13706 2.47676 1.62959
H -2.83987 -0.93502 0.93744
H -3.11579 0.05676 -0.67017
H -2.81082 -1.68327 -0.61061
H -0.72299 -1.67213 -1.95054
H -1.41368 -0.12486 -2.21131
H 0.34428 -0.25909 -1.56800
H 1.19995 2.66676 1.84382
H -0.70217 3.16239 1.60792
H 0.48730 3.06129 2.48207
H -2.40044 0.37785 2.56341
H -2.42777 1.98542 1.74796
H -1.64109 1.89327 3.18744
H 1.03854 -0.64338 2.78356
H -1.23316 -1.73248 2.36088
H -1.02706 -2.65369 0.18196
H 0.49764 -1.99907 0.00017
H 0.32624 -2.53389 2.12471
H 1.37455 -0.29029 1.26188
Li -1.77576 2.83669 -0.54140
C -0.62379 1.72440 -3.43505
C -0.24998 2.48138 -4.67805
C -1.39288 3.47429 -4.77792
C -2.40392 2.96817 -3.74584
O -1.59966 2.46990 -2.68674
H -1.12007 0.81496 -3.88251
H 0.27380 1.41607 -2.87764
H 0.72262 3.00624 -4.55635
H -0.17727 1.77717 -5.54084
H -3.10755 3.75183 -3.43486
H -2.99771 2.12326 -4.19537
H -1.01152 4.42907 -4.38358
H -1.74404 3.65536 -5.81142
C -4.64231 1.37505 0.82041
C -5.64204 0.82342 -0.15548
C -6.22299 2.10395 -0.64570
C -5.11964 3.14887 -0.32350
O -3.96387 2.45729 0.15348
H -5.17168 1.71245 1.74491
H -4.05213 0.59205 1.25093
H -5.10622 0.35418 -1.00677
H -6.36679 0.07790 0.23229
H -4.91629 3.85879 -1.14531
H -5.51325 3.74206 0.52569
H -6.48736 1.99251 -1.72019
H -7.13942 2.32695 -0.04857
C -0.80775 6.20470 0.28460
C 0.33048 7.10758 0.82688
C 1.59293 7.07715 -0.00053
C 2.04463 5.63612 -0.04011
C 0.91253 4.71989 -0.59920
N -0.38783 4.74951 0.25446
C -1.93068 6.24108 1.23409
C -1.38092 6.88042 -1.01066
C 0.77166 4.97239 -2.13983
C 1.42209 3.34540 -0.69413
H -0.69110 7.17693 -1.79555
H -2.23508 6.32718 -1.45289
H -1.74160 7.90122 -0.74654
H -2.29306 7.27355 1.43245
H -2.72830 5.61426 0.77375
H -1.55715 5.78264 2.15360
H 1.81635 3.02075 0.23138
H 0.61011 2.72757 -1.06723
H 2.30702 3.27101 -1.37241
H 1.71319 4.79548 -2.68639
H 0.01849 4.28832 -2.55173
H 0.61029 5.99327 -2.50882
H 2.97410 5.58825 -0.63698
H 1.43638 7.48946 -1.01804
H 0.00019 8.15816 0.97541
H 0.62902 6.65771 1.75839
H 2.37962 7.69391 0.48601
H 2.29324 5.32216 1.00106
Li 1.16184 1.17623 -0.33178
C 1.26622 5.18589 5.24454
C 0.22012 5.79449 6.11043
C 0.18993 7.19250 5.59434
C 0.76781 6.97421 4.16094
O 0.88012 5.56104 3.95173
H 2.30363 5.53048 5.47904
H 1.36843 4.15224 5.42719
H -0.72683 5.27360 5.84419
H 0.36566 5.72760 7.20811
H 0.20278 7.60874 3.44471
H 1.80643 7.37567 4.13888
H -0.87321 7.53719 5.51377
H 0.82533 7.89929 6.09303
C -3.46026 3.34781 4.14767
C -4.50277 3.98096 3.25026
C -4.18916 5.44572 3.37855
C -2.90013 5.45628 4.21454
O -2.32274 4.19804 3.99320
H -3.82232 3.36492 5.19636
H -3.40942 2.27181 3.97167
H -4.17938 3.67830 2.26056
H -5.57522 3.68258 3.39497
H -2.26493 6.31925 4.06306
H -3.20309 5.51383 5.30917
H -4.02859 5.79306 2.36235
H -5.00507 6.12622 3.73022
C 3.53543 -0.22085 -1.48852
C 5.03204 -0.24020 -1.96531
C 6.02055 0.15688 -0.91467
C 5.64484 1.56351 -0.47890
C 4.19164 1.61402 0.11550
N 3.06567 1.15345 -0.91056
C 2.79798 -0.65795 -2.78805
C 3.34633 -1.38873 -0.50795
C 4.25943 0.83727 1.49303
C 4.16125 3.10658 0.59143
H 3.94654 -1.42313 0.39881
H 2.33040 -1.37370 -0.18696
H 3.52753 -2.38426 -0.95803
H 3.25445 -1.59447 -3.17937
H 1.76473 -0.98260 -2.68992
H 2.87686 0.11092 -3.58093
H 4.15036 3.78097 -0.27144
H 3.41805 3.31860 1.39001
H 5.09886 3.38092 1.15100
H 4.80494 1.41188 2.26961
H 3.28020 0.61163 1.89095
H 4.86415 -0.08717 1.53911
H 6.41586 1.87515 0.24494
H 6.06472 -0.59826 -0.08600
H 5.32514 -1.26669 -2.29828
H 5.15591 0.44620 -2.82681
H 7.05076 0.17305 -1.34218
H 5.69912 2.23256 -1.36068
Li -0.34315 4.19046 3.07138
C 1.07230 1.25584 4.16646
C -0.28493 0.48630 4.38018
C -0.58663 0.76796 5.70006
C 0.15492 2.11463 5.74662
O 0.58383 2.44032 4.42811
H 1.25809 1.24612 3.07566
H 2.03067 1.21743 3.61393
H -0.23620 -0.62400 4.35650
H -1.00452 -0.18095 3.86015
H -0.49997 2.88440 6.17256
H 1.05888 1.96276 6.41586
H -0.09797 -0.09580 6.20666
H -1.70024 0.82235 5.71790

-H 0
6-31g(d,p)
****
-Li 0
6-31g(d,p)
****
-C 0
6-31g(d,p)
****
-N 0
6-31+g(d,p)
****
-O 0
6-31+g(d,p)
****


