%chk=speciation76.chk
%nprocshared=16
%mem=32GB
#p opt PM7/gen scf=xqc 

 speciation study

0 1
C         -1.11977       -1.11340        0.76804
C         -2.48171       -1.07841        0.06892
C         -3.34230        0.05688        0.65080
C         -2.62499        1.40524        0.74129
C         -1.21222        1.31899        1.37607
N         -0.36982        0.21674        0.65917
C         -1.33615       -1.71717        2.16845
C         -0.22618       -2.12027        0.11579
C         -1.39468        1.14110        2.93712
C         -0.66372        2.77447        1.34757
H         -0.06396       -1.57947       -0.78065
H          0.70777       -2.25458        0.68218
H         -0.70106       -3.11011       -0.01791
H         -1.47139       -2.82024        2.14433
H         -0.47078       -1.46552        2.75439
H         -2.24217       -1.45676        2.68272
H         -0.64519        3.52450        0.59183
H         -1.24232        3.47869        1.98811
H          0.34883        2.69581        1.15849
H         -0.43173        1.03811        3.44376
H         -1.88587        2.02365        3.40048
H         -2.09408        0.39833        3.29570
H         -2.47938        1.84460       -0.24398
H         -4.26177        0.16640        0.05705
H         -3.01433       -2.04918        0.18616
H         -2.35246       -1.00098       -1.00954
H         -3.65920       -0.20574        1.69208
H         -3.26064        2.14115        1.28085
Li         1.17129        0.16845       -1.29248
C          2.55620       -2.42612       -2.98081
C          2.01845       -2.75574       -4.37534
C          0.66062       -3.29368       -4.10104
C          0.45336       -2.93516       -2.62220
O          1.44276       -1.94638       -2.22620
H          2.92092       -3.36839       -2.48933
H          3.39789       -1.71480       -2.97975
H          1.90795       -1.75385       -4.85839
H          2.66272       -3.39228       -4.99848
H         -0.63279       -2.71361       -2.44953
H          0.63151       -3.84782       -2.02983
H         -0.05913       -2.80141       -4.80105
H          0.53653       -4.38627       -4.23900
C          2.18817       -2.56735        3.06591
C          1.19241       -3.08516        4.08854
C          0.87432       -1.84689        4.92031
C          1.67258       -0.75750        4.20497
O          1.85006       -1.20132        2.86626
H          3.22060       -2.62341        3.49318
H          2.17306       -3.18830        2.14889
H          0.28451       -3.37281        3.52398
H          1.50993       -3.98527        4.65144
H          1.26672        0.25733        4.31433
H          2.67226       -0.70889        4.69896
H         -0.21992       -1.65232        4.86802
H          1.15004       -1.91533        5.99093
C          3.82728        2.17625       -0.27699
C          2.58806        2.67832        0.39660
C          2.55677        1.93898        1.84115
C          3.68533        0.81957        2.07950
C          4.09578        0.01538        0.78100
N          3.40271        0.68914       -0.31223
C          4.91332        3.01166        0.56822
C          4.38600        2.44486       -1.70437
C          5.65673       -0.06798        0.69584
C          3.70866       -1.45769        0.62585
H          5.42709        2.05347       -1.74209
H          3.88285        1.88399       -2.50958
H          4.44139        3.53402       -1.93908
H          5.98625        2.80988        0.44019
H          4.86949        4.07088        0.22327
H          4.73053        3.21533        1.64339
H          4.14129       -2.07761        1.43063
H          2.64662       -1.62248        0.49700
H          4.11285       -1.83713       -0.33706
H          6.03682       -0.49238        1.65293
H          6.01667       -0.70423       -0.13577
H          6.20239        0.85423        0.57333
H          4.56551        1.37052        2.40401
H          2.60600        2.70382        2.64728
H          2.47945        3.79006        0.46453
H          1.78034        2.31163       -0.24675
H          1.59312        1.45790        2.02954
H          3.62148        0.24441        2.99706
Li         1.69790       -0.12619        1.05172
C          0.34256        3.04796       -3.05442
C         -0.28865        3.81359       -4.25125
C         -1.68530        3.36127       -4.54500
C         -1.58524        1.86841       -4.86948
C         -0.98509        1.06598       -3.66320
N          0.32610        1.53942       -3.14775
C          1.78221        3.48033       -3.03496
C         -0.30198        3.47863       -1.75498
C         -1.99173        0.99733       -2.55760
C         -0.79331       -0.34731       -4.16651
H         -1.39176        3.64279       -1.77710
H         -0.12524        2.62345       -1.09489
H          0.13065        4.42023       -1.34726
H          1.90850        4.57211       -2.88523
H          2.17320        2.97861       -2.18904
H          2.31506        3.17026       -3.96482
H         -0.08093       -0.37433       -5.01511
H         -0.36205       -0.84001       -3.31825
H         -1.74423       -0.84534       -4.45758
H         -2.86063        0.34467       -2.79406
H         -1.41622        0.63490       -1.67862
H         -2.45240        1.95706       -2.31620
H         -2.62205        1.47036       -5.12401
H         -2.39267        3.56505       -3.72063
H         -0.29129        4.90704       -4.03919
H          0.31971        3.64703       -5.16675
H         -2.09650        3.89702       -5.43198
H         -0.96431        1.73961       -5.75114
Li         1.57123        1.17705       -4.61192

-H 0
6-31g(d,p)
****
-Li 0
6-31g(d,p)
****
-C 0
6-31g(d,p)
****
-N 0
6-31+g(d,p)
****
-O 0
6-31+g(d,p)
****


