%chk=speciation32.chk
%nprocshared=16
%mem=32GB
#p opt PM7/gen scf=xqc 

 speciation study

0 1
C          0.93774        0.83842       -0.98616
C          1.32668       -0.63682       -0.80266
C          0.46160       -1.63955       -1.56786
C         -1.02929       -1.44682       -1.25560
C         -1.42748        0.05858       -1.25618
N         -0.47759        1.02309       -0.56872
C          1.79884        1.70950       -0.06362
C          1.26707        1.32812       -2.42438
C         -1.62498        0.34055       -2.75679
C         -2.73189        0.21300       -0.49732
H          0.90916        0.69650       -3.23925
H          0.88432        2.35410       -2.58443
H          2.36679        1.33178       -2.58341
H          2.88372        1.58655       -0.28363
H          1.55227        2.76588       -0.18788
H          1.59964        1.46196        0.98800
H         -2.55005       -0.04394        0.56918
H         -3.03229        1.27386       -0.52320
H         -3.53656       -0.44757       -0.88401
H         -2.57200       -0.13426       -3.08575
H         -1.54178        1.39199       -3.00638
H         -0.90208       -0.16388       -3.41424
H         -1.62872       -2.04221       -1.98277
H          0.65695       -1.51115       -2.64579
H          2.39502       -0.80587       -1.05299
H          1.14591       -0.82103        0.24263
H          0.75438       -2.68049       -1.30255
H         -1.38154       -1.97926       -0.38498
Li        -0.59920        0.95994        1.80783
C          0.28611        5.85812        0.35554
C          0.63324        7.10685       -0.41266
C          1.39493        6.54510       -1.59120
C          1.44421        5.05310       -1.30624
O          0.24737        4.77855       -0.60818
H          1.10555        5.66580        1.09035
H         -0.60118        6.11209        0.96468
H         -0.30754        7.57048       -0.78757
H          1.17484        7.83649        0.23150
H          1.57741        4.45617       -2.21920
H          2.31860        4.83776       -0.63239
H          0.74321        6.66917       -2.48240
H          2.38492        7.01346       -1.76893
C         -3.93447        2.53321       -2.80969
C         -3.96230        2.18600       -4.29570
C         -3.20001        3.32018       -4.90560
C         -2.46955        3.96819       -3.71144
O         -2.69861        3.21358       -2.53609
H         -4.78074        3.20913       -2.57000
H         -4.11010        1.58556       -2.26988
H         -3.36676        1.27381       -4.48129
H         -4.96309        1.97839       -4.74087
H         -1.38780        4.05518       -3.92797
H         -2.91242        4.97237       -3.54082
H         -2.51530        2.91684       -5.68990
H         -3.88956        4.05523       -5.37290
C         -3.69733        2.28005        3.12902
C         -4.21008        3.57830        3.83985
C         -3.69311        4.86680        3.19859
C         -2.18686        4.80669        3.29532
C         -1.62778        3.54381        2.58424
N         -2.15657        2.26754        3.06456
C         -4.10934        1.07888        3.96292
C         -4.53742        2.11850        1.82707
C         -1.86882        3.59709        1.07688
C         -0.12834        3.51593        2.90920
H         -4.68155        2.98930        1.18219
H         -4.23027        1.22804        1.27041
H         -5.60473        1.93260        2.09280
H         -5.19209        1.09927        4.18916
H         -3.88652        0.13163        3.43703
H         -3.52300        1.10131        4.88273
H         -0.06018        3.39839        3.99636
H          0.38409        2.65566        2.45132
H          0.39602        4.44742        2.66642
H         -1.64246        4.49572        0.58072
H         -1.39979        2.73515        0.62934
H         -2.88986        3.60845        0.77348
H         -1.75160        5.74310        2.88890
H         -4.03901        4.99073        2.15392
H         -5.31422        3.61544        3.88851
H         -3.79235        3.63638        4.85136
H         -4.06145        5.74751        3.77301
H         -1.90926        4.78253        4.37810
Li        -0.99722        3.07354       -1.23682
C         -2.56709        1.51111        7.85586
C         -3.36858        0.28353        7.50900
C         -4.73618        0.87061        7.25776
C         -4.41345        2.34113        6.99877
O         -2.99226        2.49051        6.92574
H         -2.79933        1.85675        8.89338
H         -1.48109        1.31065        7.81563
H         -2.94361       -0.07563        6.54858
H         -3.35103       -0.56739        8.21706
H         -5.03290        2.74740        6.18585
H         -4.74827        2.94380        7.87648
H         -5.21452        0.34732        6.40239
H         -5.40890        0.81414        8.13884
C          0.06995        3.95791        7.05428
C          1.32287        4.54512        6.41451
C          1.98121        3.34079        5.77074
C          1.01809        2.19704        6.10789
O         -0.23627        2.77731        6.35137
H          0.29933        3.66897        8.10940
H         -0.76554        4.68428        7.07746
H          1.00849        5.23515        5.59996
H          1.95546        5.10579        7.13788
H          0.92933        1.43134        5.32409
H          1.35887        1.70145        7.04656
H          1.99429        3.51807        4.67431
H          3.03590        3.14995        6.06701
C          2.27720       -0.70028        3.10391
C          2.67036       -1.80094        4.13073
C          1.95680       -3.11523        3.84976
C          0.48329       -2.85575        4.07621
C         -0.06359       -1.76866        3.12968
N          0.74487       -0.50367        3.01884
C          2.96249        0.60861        3.55624
C          3.00784       -1.07342        1.78663
C         -0.22351       -2.33474        1.75558
C         -1.48924       -1.40553        3.59990
H          2.67520       -1.99887        1.29048
H          3.02147       -0.23470        1.08929
H          4.09023       -1.24370        1.97288
H          4.07049        0.51502        3.50571
H          2.67307        1.46628        2.91899
H          2.75611        0.83660        4.60484
H         -1.49438       -1.03604        4.64284
H         -1.91369       -0.62795        2.93750
H         -2.15922       -2.29842        3.54687
H         -0.96044       -3.16433        1.70315
H         -0.58368       -1.43424        1.25758
H          0.70270       -2.70596        1.29712
H         -0.09078       -3.80306        3.94710
H          2.16451       -3.50493        2.83236
H          3.77085       -1.97358        4.10974
H          2.41523       -1.47372        5.15935
H          2.30391       -3.89168        4.56450
H          0.35359       -2.53692        5.13102
Li        -1.84137        2.41387        5.23550

-H 0
6-31g(d,p)
****
-Li 0
6-31g(d,p)
****
-C 0
6-31g(d,p)
****
-N 0
6-31+g(d,p)
****
-O 0
6-31+g(d,p)
****


