%chk=speciation103.chk
%nprocshared=16
%mem=32GB
#p opt PM7/gen scf=xqc 

 speciation study

0 1
C         -2.34350       -1.87206       -0.14126
C         -3.69201       -1.37945        0.60095
C         -3.64616       -0.22351        1.56701
C         -2.43198        0.62062        1.28079
C         -1.16193       -0.20299        1.28693
N         -1.00378       -1.09879        0.12971
C         -2.14984       -3.35049        0.20789
C         -2.72881       -1.85221       -1.63416
C         -1.03234       -0.95027        2.52729
C         -0.02773        0.67320        1.21348
H         -2.34357       -0.91006       -1.99335
H         -3.81087       -1.83405       -1.88518
H         -2.44155       -2.74876       -2.20644
H         -3.09942       -3.91894        0.30673
H         -1.59226       -3.35133        1.11696
H         -1.52240       -3.91793       -0.50043
H         -0.11673        1.15454        0.29299
H         -0.07806        1.36454        2.07771
H          0.88418        0.06928        1.11701
H         -0.02229       -1.35729        2.48663
H         -1.17023       -0.29952        3.41991
H         -1.78495       -1.72801        2.47846
H         -2.45896        1.05571        0.31295
H         -4.59296        0.36063        1.52972
H         -4.30219       -2.20537        1.02080
H         -4.46995       -1.07702       -0.11551
H         -3.59838       -0.60179        2.60096
H         -2.39949        1.43258        2.05260
Li         0.93807       -2.61604        0.95803
C         -0.73035       -4.68331        2.93260
C         -2.06260       -4.23957        3.57432
C         -1.63474       -3.16770        4.55873
C         -0.12847       -3.01736        4.22910
O          0.09116       -3.53040        2.88467
H         -0.24007       -5.43248        3.59456
H         -0.84515       -5.18084        1.95117
H         -2.71192       -3.74132        2.82464
H         -2.69370       -5.04533        3.99371
H          0.25746       -1.99928        4.46052
H          0.43266       -3.65419        4.94517
H         -2.26110       -2.25946        4.38434
H         -1.83857       -3.37115        5.62636
C          0.99584       -5.28585       -1.80733
C          1.50568       -6.68048       -2.09457
C          2.88352       -6.59441       -1.47053
C          3.07085       -5.08287       -1.08053
O          1.69715       -4.67158       -0.65223
H          1.35023       -4.83593       -2.79512
H         -0.09484       -5.25622       -1.84210
H          0.88938       -7.43077       -1.59133
H          1.52251       -6.92307       -3.20324
H          3.86834       -5.01419       -0.41016
H          3.36262       -4.55167       -2.05085
H          2.78104       -7.09695       -0.48982
H          3.67931       -7.11361       -2.05604
C          3.77670       -2.09508        2.36722
C          4.33883       -2.56228        1.07250
C          4.33175       -1.35520        0.12965
C          4.51281        0.06578        0.94928
C          3.52486        0.30093        2.18332
N          2.80030       -0.99687        1.93613
C          4.99382       -1.75206        3.34011
C          3.03351       -3.16799        3.12369
C          4.62014        1.08879        3.10543
C          2.31080        1.09802        2.77228
H          2.57920       -2.70432        4.03687
H          2.30132       -3.63561        2.49159
H          3.70915       -3.99316        3.48471
H          4.64081       -1.40404        4.32042
H          5.59220       -2.68509        3.54034
H          5.80821       -1.09648        2.98594
H          2.03674        2.01015        2.27145
H          1.51331        0.43045        3.16657
H          2.43410        1.49307        3.81098
H          5.54689        1.45572        2.59515
H          4.34398        2.16627        3.28109
H          4.83493        0.70705        4.11007
H          5.54619       -0.10286        1.25033
H          4.87524       -1.71848       -0.71139
H          3.62015       -3.27825        0.63634
H          5.32285       -3.07218        1.19156
H          3.34253       -1.33030       -0.32013
H          4.53910        1.07624        0.52370
Li        -0.30370        0.68374       -1.38604
C         -0.18502       -1.40547       -3.46257
C          0.24806       -2.69146       -2.85196
C          0.87768       -2.30303       -1.54573
C          1.33226       -0.95808       -1.87535
O          0.35443       -0.40382       -2.67561
H          0.23600       -1.36897       -4.49143
H         -1.25013       -1.26093       -3.64057
H         -0.57672       -3.43048       -2.79441
H          1.08505       -3.00316       -3.47586
H          1.46787       -0.36529       -0.95866
H          2.28728       -1.02546       -2.43370
H          0.16152       -2.61394       -0.80165
H          1.79732       -2.67424       -1.12310
C         -2.79150        2.99379       -1.05221
C         -4.21874        2.50467       -0.82994
C         -4.27812        1.33365       -1.79849
C         -3.09747        1.56073       -2.69371
O         -2.10768        1.97173       -1.78289
H         -2.84516        3.90632       -1.69704
H         -2.32118        3.28063       -0.09118
H         -4.38359        2.13253        0.19844
H         -4.95397        3.31014       -1.00258
H         -2.80325        0.67106       -3.27405
H         -3.30250        2.35971       -3.45317
H         -3.91580        0.48502       -1.23950
H         -5.26526        1.04302       -2.20194
C          2.66808        3.01606       -2.49509
C          2.83950        2.02259       -3.58193
C          1.39081        1.68556       -3.99371
C          0.20787        2.20066       -2.95387
C          0.56791        2.83928       -1.39285
N          1.81116        2.19413       -1.48284
C          2.14880        4.32257       -3.29259
C          3.90110        3.55137       -1.80840
C         -0.01436        4.33540       -1.56301
C          0.92127        3.24218        0.16183
H          3.58999        4.31271       -1.05339
H          4.42399        2.78675       -1.26638
H          4.58452        4.06980       -2.52974
H          2.19180        5.25938       -2.72852
H          2.81725        4.53327       -4.15730
H          1.17808        4.27404       -3.81894
H          0.10543        3.09527        0.89098
H          1.92460        2.90782        0.54734
H          1.16261        4.27393        0.44047
H         -0.65969        4.53590       -2.42712
H         -0.75078        4.56610       -0.76465
H          0.69843        5.15459       -1.38848
H         -0.56404        1.46058       -3.12308
H          1.14048        2.04959       -5.00507
H          3.45731        2.35282       -4.45269
H          3.34971        1.15233       -3.13539
H          1.47908        0.61399       -4.23300
H         -0.37803        2.89858       -3.55896
Li         3.12045        0.50054       -0.37689
C          6.06494       -0.35319       -2.17492
C          7.19975       -0.82640       -1.21907
C          7.53653        0.43156       -0.45659
C          6.44927        1.40725       -0.94204
O          5.32125        0.64214       -1.45444
H          6.53916        0.11252       -3.06597
H          5.44089       -1.15912       -2.60975
H          6.86701       -1.54678       -0.44281
H          8.05528       -1.34828       -1.69048
H          6.23132        2.17601       -0.17195
H          6.88905        1.99064       -1.78808
H          7.48242        0.22924        0.63613
H          8.56874        0.80532       -0.61305

-H 0
6-31g(d,p)
****
-Li 0
6-31g(d,p)
****
-C 0
6-31g(d,p)
****
-N 0
6-31+g(d,p)
****
-O 0
6-31+g(d,p)
****


