%chk=speciation9.chk
%nprocshared=16
%mem=32GB
#p opt PM7/gen scf=xqc 

 speciation study

0 1
C          0.91313        1.07054       -0.59443
C          1.56208       -0.29984       -0.32908
C          0.81410       -1.44923       -1.02142
C         -0.68317       -1.45783       -0.63463
C         -1.33156       -0.08090       -0.83030
N         -0.53333        1.02656       -0.19715
C          1.63636        2.09151        0.28724
C          1.18027        1.54292       -2.05561
C         -1.54565        0.10448       -2.34396
C         -2.70286       -0.07590       -0.13955
H          0.92280        0.83418       -2.84674
H          0.66277        2.50584       -2.25311
H          2.26960        1.69775       -2.21127
H          2.73405        2.08381        0.09726
H          1.28028        3.08342        0.00936
H          1.46216        1.89832        1.36236
H         -2.57629       -0.25606        0.95074
H         -3.20265        0.90099       -0.25928
H         -3.36370       -0.87336       -0.54398
H         -2.43506       -0.45687       -2.70025
H         -1.60343        1.16082       -2.57161
H         -0.74565       -0.29748       -2.97944
H         -1.21565       -2.24549       -1.21882
H          0.94210       -1.34568       -2.11639
H          2.63088       -0.31007       -0.63286
H          1.52986       -0.43082        0.75556
H          1.27761       -2.42254       -0.75015
H         -0.85547       -1.72732        0.40614
Li        -0.69959        0.90447        2.00132
C         -3.28026        1.26349        3.55441
C         -4.53163        1.57553        2.79636
C         -4.36216        3.05206        2.56608
C         -2.83891        3.22808        2.59982
O         -2.26582        1.94981        2.85208
H         -3.35621        1.67717        4.59437
H         -3.07915        0.18143        3.62468
H         -4.43956        1.05008        1.82752
H         -5.48804        1.29071        3.28507
H         -2.50942        3.67229        1.65644
H         -2.57742        3.91350        3.44531
H         -4.85051        3.35110        1.61287
H         -4.82198        3.64806        3.38155
C         -3.29961        2.68042       -3.37893
C         -4.39033        3.65654       -3.81141
C         -4.99498        4.06743       -2.48998
C         -4.55864        2.95634       -1.56848
O         -3.22966        2.70727       -1.95798
H         -3.62224        1.64846       -3.67400
H         -2.33416        2.89457       -3.87746
H         -5.11376        3.12314       -4.46859
H         -3.99458        4.55560       -4.33239
H         -4.62911        3.27144       -0.52034
H         -5.17127        2.03229       -1.71556
H         -4.44144        4.96581       -2.13965
H         -6.08100        4.30421       -2.51962
C          0.71437       -1.61588        3.65576
C          1.72234       -2.06681        4.75082
C          1.56220       -1.31411        6.04442
C          1.85039        0.13829        5.71502
C          0.82994        0.72391        4.70448
N          0.64590       -0.11186        3.45340
C          1.27831       -2.31920        2.40839
C         -0.69096       -2.20534        3.92031
C         -0.49756        0.94083        5.44488
C          1.34750        2.10769        4.28682
H         -1.13002       -1.88251        4.87206
H         -1.38108       -1.94263        3.09324
H         -0.63042       -3.31859        3.97239
H          1.34274       -3.41863        2.54043
H          0.63063       -2.18029        1.57935
H          2.29245       -1.94279        2.15233
H          2.34080        2.02416        3.79680
H          0.64363        2.59528        3.58674
H          1.45853        2.77106        5.17791
H         -0.35049        1.54460        6.36144
H         -1.16219        1.51781        4.81979
H         -1.00020        0.01212        5.75474
H          1.84525        0.72969        6.65890
H          0.55547       -1.47784        6.47964
H          1.64510       -3.16476        4.92723
H          2.77182       -1.88318        4.40456
H          2.31294       -1.68958        6.76877
H          2.88056        0.20421        5.30198
Li        -1.58874        2.72389       -0.75443
C         -0.19157        4.82185        1.11367
C         -0.67695        6.20688        1.49792
C         -1.31704        6.69747        0.20678
C         -1.03355        5.57784       -0.78686
O         -0.97880        4.42275       -0.00277
H          0.86875        4.94850        0.79405
H         -0.21395        4.12030        1.97184
H         -1.47282        6.13034        2.27168
H          0.15657        6.83381        1.88157
H         -1.83031        5.52466       -1.55861
H         -0.04661        5.71647       -1.28516
H         -2.41654        6.69526        0.38358
H         -1.00903        7.70622       -0.13826

-H 0
6-31g(d,p)
****
-Li 0
6-31g(d,p)
****
-C 0
6-31g(d,p)
****
-N 0
6-31+g(d,p)
****
-O 0
6-31+g(d,p)
****


