%chk=speciation90.chk
%nprocshared=16
%mem=32GB
#p opt PM7/gen scf=xqc 

 speciation study

0 1
C -1.28634 -1.40208 0.90352
C -2.67779 -1.41774 0.16893
C -3.55279 -0.23864 0.58914
C -2.83391 1.01808 0.18045
C -1.32384 1.11273 0.66572
N -0.45117 -0.13506 0.58276
C -1.63473 -1.64744 2.39633
C -0.47205 -2.65171 0.56366
C -1.37652 1.60463 2.11210
C -0.72462 2.24804 -0.17837
H 0.30115 -2.42026 -0.17256
H 0.08789 -3.00465 1.43545
H -1.10357 -3.52191 0.28983
H -2.14089 -2.63404 2.50241
H -0.72898 -1.71789 2.97417
H -2.30834 -0.96598 2.90749
H -1.27516 2.47169 -1.11667
H -0.71906 3.23454 0.33770
H 0.24851 1.89814 -0.52406
H -0.36179 1.57781 2.49811
H -1.79263 2.63472 2.19602
H -2.02043 1.01502 2.76386
H -2.92808 1.01944 -0.91578
H -4.53459 -0.28482 0.07001
H -3.22711 -2.35392 0.40502
H -2.61276 -1.38686 -0.92212
H -3.77966 -0.21785 1.66587
H -3.41719 1.92016 0.47214
Li 1.23864 -0.03381 -0.99879
C 1.18296 -0.74619 4.42941
C -0.01800 -0.12814 5.15020
C 0.30426 1.34921 5.16557
C 1.63230 1.36906 4.46556
O 1.64838 0.24896 3.54682
H 1.99160 -0.96038 5.17489
H 1.02472 -1.73020 3.97321
H -0.92413 -0.22720 4.53387
H -0.20176 -0.57590 6.14428
H 1.88851 2.37074 4.11047
H 2.44958 1.21965 5.21439
H -0.42568 1.89647 4.54447
H 0.30428 1.85847 6.14753
C 3.07096 -2.91379 2.74645
C 4.30233 -3.68778 2.19453
C 3.88060 -4.00371 0.78336
C 2.42756 -3.58537 0.77296
O 2.27082 -2.46381 1.65130
H 2.43926 -3.62500 3.33360
H 3.36652 -2.12209 3.45836
H 5.20323 -3.04462 2.13139
H 4.49651 -4.56797 2.81747
H 2.11877 -3.42873 -0.25390
H 1.80721 -4.43147 1.15447
H 4.41114 -3.31994 0.09382
H 4.07212 -5.04864 0.45549
C 3.29098 2.73495 -0.47076
C 2.21538 3.36006 0.38371
C 1.98861 2.40974 1.59067
C 3.35680 1.72347 2.08105
C 4.03584 0.89943 0.91710
N 3.19635 1.18685 -0.25301
C 4.62105 3.55580 -0.07176
C 3.27358 3.11633 -1.96539
C 5.61287 1.07461 1.00044
C 3.97447 -0.59604 0.91534
H 4.21945 2.78599 -2.45745
H 2.45399 2.70502 -2.52022
H 3.21187 4.22543 -2.08973
H 5.22874 3.46027 0.83803
H 4.56637 4.61561 -0.42288
H 4.35917 3.88343 0.94326
H 4.27118 -0.95552 1.90391
H 3.05754 -0.94257 0.42692
H 4.67715 -1.04273 0.17954
H 5.93136 0.67118 1.99336
H 6.15886 0.50432 0.22165
H 6.11622 2.04126 1.00922
H 3.90337 2.58878 2.45993
H 1.36584 2.99262 2.28537
H 2.48473 4.37673 0.73643
H 1.33787 3.58820 -0.22508
H 1.36664 1.58526 1.24829
H 3.53506 1.12331 2.97267
Li 1.66454 -0.24186 1.39351
C 3.71599 0.77810 -6.62744
C 2.89144 2.03529 -6.46342
C 1.54642 1.63198 -7.04885
C 1.76512 0.13631 -7.33403
O 2.79675 -0.28918 -6.46633
H 4.14513 0.74756 -7.66032
H 4.57734 0.73653 -5.93325
H 2.81113 2.14059 -5.36982
H 3.30475 2.99575 -6.82558
H 0.89175 -0.54620 -7.40135
H 2.13809 0.03790 -8.37913
H 0.77919 1.87864 -6.28956
H 1.24379 2.15134 -7.97679
C 5.00281 -1.92762 -5.07017
C 5.25843 -3.27126 -4.41207
C 5.11072 -2.97212 -2.93439
C 4.75546 -1.48825 -2.90153
O 4.23719 -1.15424 -4.16815
H 5.97017 -1.39555 -5.22517
H 4.52897 -2.05822 -6.06452
H 4.43284 -3.96106 -4.69829
H 6.22599 -3.72799 -4.71792
H 4.05951 -1.24843 -2.07502
H 5.68486 -0.88955 -2.75758
H 4.24795 -3.56718 -2.56677
H 5.99326 -3.22237 -2.30635
C -0.28037 0.23713 -3.66989
C -0.72107 -0.07332 -5.09253
C -1.20922 -1.49848 -5.30078
C -0.08948 -2.45380 -4.85829
C 0.34143 -2.17873 -3.39885
N 0.72971 -0.73897 -3.16401
C 0.39398 1.59963 -3.61445
C -1.51623 0.34232 -2.81111
C -0.79978 -2.64522 -2.49315
C 1.57412 -3.01627 -3.09331
H -2.23083 -0.47888 -2.90979
H -1.13741 0.34976 -1.79147
H -2.09298 1.26660 -3.05214
H -0.20728 2.42124 -4.07190
H 0.59131 1.86857 -2.57493
H 1.36703 1.51281 -4.09713
H 2.35374 -2.82698 -3.85013
H 1.98140 -2.69883 -2.12892
H 1.34918 -4.10288 -3.09208
H -0.70928 -3.70024 -2.15127
H -0.80363 -1.92516 -1.70924
H -1.81221 -2.57045 -2.90937
H -0.42124 -3.51120 -4.97235
H -2.16367 -1.66002 -4.76463
H -1.45640 0.67514 -5.46952
H 0.18144 -0.00033 -5.61505
H -1.42475 -1.66681 -6.36975
H 0.78426 -2.29205 -5.52840
Li 2.40072 -0.58614 -4.51101

-H 0
6-31g(d,p)
****
-Li 0
6-31g(d,p)
****
-C 0
6-31g(d,p)
****
-N 0
6-31+g(d,p)
****
-O 0
6-31+g(d,p)
****


