%chk=speciation23.chk
%nprocshared=16
%mem=32GB
#p opt PM7/gen scf=xqc 

 speciation study

0 1
C          0.93399        0.73203       -0.78484
C          1.33599       -0.71617       -0.51187
C          0.50381       -1.72491       -1.29127
C         -0.98701       -1.53327       -0.98054
C         -1.42074       -0.03058       -1.01166
N         -0.48433        0.96289       -0.35716
C          1.78086        1.62729        0.06347
C          1.27211        1.17938       -2.25258
C         -1.62383        0.23076       -2.52168
C         -2.72833        0.10898       -0.24342
H          0.94437        0.52912       -3.06324
H          0.88706        2.20550       -2.45031
H          2.37456        1.20708       -2.40054
H          2.87216        1.49878       -0.11643
H          1.50694        2.59635       -0.29758
H          1.52995        1.52523        1.13636
H         -2.58091       -0.12268        0.83105
H         -3.01754        1.15626       -0.26849
H         -3.52907       -0.54727       -0.64499
H         -2.55811       -0.26377       -2.85569
H         -1.56420        1.28048       -2.79442
H         -0.88753       -0.26737       -3.16525
H         -1.59236       -2.15400       -1.67998
H          0.71096       -1.59465       -2.36458
H          2.41643       -0.87835       -0.72127
H          1.12981       -0.87508        0.54092
H          0.80436       -2.75675       -1.01125
H         -1.25702       -2.04048       -0.07176
Li        -0.71097        1.04511        1.97734
C          0.55562        5.89209       -0.74310
C          2.09012        6.06398       -0.83622
C          2.63116        4.98479        0.08226
C          1.38654        4.63222        0.83633
O          0.32070        4.63330       -0.14623
H          0.16491        6.66098       -0.02518
H          0.02774        6.07234       -1.69595
H          2.48608        5.86647       -1.85359
H          2.38479        7.08079       -0.49117
H          1.45098        3.72862        1.46802
H          1.27369        5.44463        1.58917
H          2.93250        4.12289       -0.54327
H          3.49797        5.26011        0.72182
C         -3.97396        2.38722       -2.45186
C         -4.09597        2.08099       -3.94064
C         -3.38981        3.24301       -4.57102
C         -2.67119        3.92573       -3.38841
O         -2.72260        3.08014       -2.25286
H         -4.81289        3.03518       -2.12896
H         -4.10172        1.41090       -1.96466
H         -3.49171        1.18325       -4.17980
H         -5.11887        1.85536       -4.32039
H         -1.63662        4.19819       -3.67103
H         -3.24697        4.84219       -3.12744
H         -2.69828        2.84601       -5.34860
H         -4.10845        3.94557       -5.05427
C         -3.71861        2.70322        3.12077
C         -4.18515        3.74306        4.20940
C         -3.30795        5.01850        4.25191
C         -1.90936        4.52853        4.57016
C         -1.38429        3.54900        3.48324
N         -2.23650        2.37026        3.21470
C         -4.52329        1.42093        3.38765
C         -4.18455        3.23199        1.73300
C         -1.19373        4.30044        2.18787
C         -0.03031        3.02765        3.97890
H         -3.94774        4.27844        1.49803
H         -3.81392        2.59817        0.93135
H         -5.29150        3.23879        1.67595
H         -5.61570        1.64196        3.35225
H         -4.28723        0.64663        2.63925
H         -4.30080        1.04003        4.40486
H         -0.15758        2.47903        4.94000
H          0.38868        2.32103        3.24253
H          0.70051        3.85003        4.14460
H         -0.54655        5.14683        2.39975
H         -0.86824        3.54787        1.44746
H         -2.05867        4.79919        1.76715
H         -1.23366        5.41238        4.65710
H         -3.36238        5.58585        3.31943
H         -5.24502        4.05115        4.04795
H         -4.13045        3.29036        5.22220
H         -3.65814        5.68832        5.06645
H         -1.91808        4.03035        5.56427
Li        -0.96667        3.00248       -0.95239
C          2.11051       -0.43434        3.53612
C          2.48480       -1.49999        4.60964
C          1.78899       -2.82808        4.35293
C          0.31273       -2.55579        4.54616
C         -0.23189       -1.50488        3.54373
N          0.59596       -0.27211        3.34361
C          2.69882        0.90319        4.01331
C          2.91543       -0.83403        2.26933
C         -0.40695       -2.14405        2.20665
C         -1.63244       -1.08449        4.03218
H          2.61157       -1.79365        1.81795
H          2.93186       -0.04768        1.51988
H          3.99512       -0.95625        2.50899
H          3.79496        0.81760        4.18387
H          2.54680        1.70034        3.25989
H          2.22386        1.21360        4.96891
H         -1.57380       -0.63659        5.04450
H         -2.08533       -0.34061        3.34604
H         -2.30828       -1.96847        4.08117
H         -1.14208       -2.97765        2.21380
H         -0.77736       -1.28467        1.63686
H          0.53181       -2.53744        1.77723
H         -0.26270       -3.50647        4.46158
H          2.01580       -3.25122        3.35312
H          3.58729       -1.66765        4.62760
H          2.20719       -1.14951        5.62483
H          2.12553       -3.57846        5.09917
H          0.17803       -2.19052        5.58618
Li        -2.20992        1.53165        4.98337

-H 0
6-31g(d,p)
****
-Li 0
6-31g(d,p)
****
-C 0
6-31g(d,p)
****
-N 0
6-31+g(d,p)
****
-O 0
6-31+g(d,p)
****


