%chk=speciation25.chk
%nprocshared=16
%mem=32GB
#p opt PM7/gen scf=xqc 

 speciation study

0 1
C          0.88126        1.44446       -1.06725
C          1.82113        0.27471       -0.80969
C          1.25874       -1.10518       -1.23054
C         -0.15505       -1.31922       -0.65505
C         -1.04159       -0.12146       -1.00430
N         -0.47431        1.16888       -0.41169
C          1.49700        2.66520       -0.41617
C          0.92065        1.81999       -2.59492
C         -1.29008       -0.13456       -2.52651
C         -2.39174       -0.29390       -0.40252
H          0.78238        1.02370       -3.32760
H          0.23073        2.65823       -2.82783
H          1.94652        2.15186       -2.87377
H          2.54336        2.85276       -0.75065
H          0.90095        3.49181       -0.73075
H          1.46266        2.57905        0.66444
H         -2.23713       -0.11039        0.66799
H         -3.08629        0.44351       -0.81760
H         -2.82359       -1.29756       -0.62788
H         -2.09929       -0.83750       -2.82611
H         -1.49906        0.89165       -2.80087
H         -0.48171       -0.50580       -3.16081
H         -0.58540       -2.26678       -1.06061
H          1.28056       -1.17821       -2.33542
H          2.82956        0.42706       -1.23642
H          1.89178        0.37422        0.25664
H          1.92205       -1.93645       -0.90607
H         -0.15886       -1.42100        0.44815
Li        -0.52883        1.02283        2.20992
C          1.30009        3.84999        3.13669
C          2.12572        3.86557        4.43435
C          1.20141        3.21968        5.42459
C         -0.06141        2.94131        4.60492
O          0.27300        2.83728        3.22109
H          0.79171        4.84155        3.07108
H          1.98425        3.79541        2.27656
H          3.02675        3.22565        4.32728
H          2.52302        4.86167        4.73678
H         -0.60374        2.07908        4.98245
H         -0.73852        3.81404        4.73076
H          1.69668        2.30398        5.79024
H          0.99599        3.83586        6.34137
C         -2.20149        5.78528       -1.39988
C         -0.89082        6.31189       -1.93190
C          0.08626        5.94165       -0.83647
C         -0.78730        5.09857        0.11453
O         -1.88583        4.62992       -0.64045
H         -2.66028        6.54778       -0.71354
H         -2.93499        5.64602       -2.19080
H         -0.66256        5.69303       -2.82535
H         -0.86931        7.38825       -2.23363
H         -0.30045        4.32478        0.72547
H         -1.20343        5.77244        0.89955
H          0.90686        5.41424       -1.36178
H          0.55509        6.78243       -0.28618
C         -3.84634       -0.16716        3.18497
C         -5.30554        0.16466        3.64680
C         -5.95835        1.18151        2.75733
C         -5.13191        2.43005        2.93776
C         -3.64784        2.27908        2.45269
N         -2.90733        1.02673        2.93975
C         -3.30144       -0.95118        4.36245
C         -3.97459       -1.15264        2.00320
C         -3.63214        2.31919        0.95368
C         -2.92626        3.52491        2.95911
H         -4.41872       -0.66872        1.11365
H         -3.01073       -1.65788        1.79097
H         -4.66062       -1.99187        2.24697
H         -3.79596       -1.94218        4.49609
H         -2.27631       -1.04883        4.13036
H         -3.35380       -0.39024        5.31500
H         -2.94905        3.56938        4.06619
H         -1.88874        3.55255        2.58994
H         -3.43023        4.44546        2.58329
H         -4.05616        3.29636        0.63460
H         -2.59568        2.25874        0.59938
H         -4.27325        1.52162        0.52098
H         -5.62920        3.26972        2.39904
H         -6.03452        0.83766        1.70301
H         -5.93232       -0.76221        3.68388
H         -5.32188        0.56820        4.68240
H         -7.00147        1.35628        3.11372
H         -5.16667        2.69889        4.01679
Li        -1.88732        2.67343       -1.20697
C         -3.67379        1.70042       -3.70063
C         -4.37039        2.78084       -4.50761
C         -4.90074        3.69107       -3.43494
C         -4.74815        2.87349       -2.18175
O         -3.52755        2.18613       -2.36467
H         -4.32939        0.79485       -3.64572
H         -2.77510        1.38905       -4.25750
H         -3.64392        3.35676       -5.12622
H         -5.14837        2.31981       -5.14995
H         -4.76439        3.53444       -1.30564
H         -5.58235        2.13457       -2.07142
H         -4.15509        4.48942       -3.33954
H         -5.87952        4.17240       -3.62646
C          0.56390       -1.44685        4.58714
C          1.74569       -2.17043        5.32064
C          3.00913       -1.33230        5.36614
C          3.43391       -1.25870        3.94124
C          2.36663       -0.61254        2.99556
N          0.87924       -0.76458        3.26956
C         -0.45524       -2.57714        4.30832
C          0.02037       -0.42538        5.60635
C          2.62111        0.87573        2.99876
C          2.69300       -1.28782        1.67462
H          0.76993        0.35401        5.81564
H         -0.90924        0.04588        5.28420
H         -0.19612       -0.91200        6.58410
H         -1.10479       -2.76168        5.19455
H         -1.02479       -2.37881        3.38146
H          0.02154       -3.53765        4.03908
H          1.75763       -1.37431        1.16421
H          2.90620       -2.37116        1.71892
H          3.53654       -0.78885        1.14277
H          3.66714        1.15505        2.74995
H          1.94325        1.36549        2.29985
H          2.39792        1.21386        4.01987
H          4.43007       -0.76750        3.81776
H          2.87874       -0.33593        5.82736
H          1.45275       -2.47394        6.34632
H          2.00172       -3.12503        4.80329
H          3.79903       -1.88087        5.92637
H          3.64680       -2.31868        3.66764
Li        -2.65487        1.51977        4.82419

-H 0
6-31g(d,p)
****
-Li 0
6-31g(d,p)
****
-C 0
6-31g(d,p)
****
-N 0
6-31+g(d,p)
****
-O 0
6-31+g(d,p)
****


