%chk=speciation74.chk
%nprocshared=16
%mem=32GB
#p opt PM7/gen scf=xqc 

 speciation study

0 1
C         -1.15804       -1.44217        0.67070
C         -2.57498       -1.55839        0.01196
C         -3.46652       -0.36327        0.39671
C         -2.79179        0.91635       -0.06024
C         -1.31611        1.08808        0.44341
N         -0.45971       -0.15252        0.26284
C         -1.40841       -1.55998        2.18360
C         -0.22125       -2.66950        0.41765
C         -1.33641        1.56025        1.93375
C         -0.73283        2.21613       -0.42514
H          0.23980       -2.83306       -0.54444
H          0.66347       -2.59371        1.05515
H         -0.73107       -3.62428        0.67314
H         -1.70943       -2.59398        2.46476
H         -0.48748       -1.31089        2.64200
H         -2.16147       -0.94814        2.67172
H         -1.33996        2.48432       -1.31327
H         -0.65734        3.18329        0.11390
H          0.20258        1.84639       -0.87688
H         -0.36859        1.46384        2.44948
H         -1.66462        2.61610        2.01355
H         -2.06064        1.04123        2.56292
H         -2.83413        0.86040       -1.15949
H         -4.45382       -0.45244       -0.10498
H         -3.07181       -2.49930        0.33145
H         -2.56562       -1.56764       -1.08465
H         -3.69200       -0.31460        1.47327
H         -3.39967        1.80660        0.21860
Li         1.17739       -0.01729       -1.24197
C          2.35858       -2.44920        3.07318
C          1.34586       -3.16706        3.91947
C          0.75350       -2.04593        4.75205
C          1.33174       -0.78657        4.10292
O          1.79407       -1.16245        2.80204
H          3.32295       -2.31642        3.62685
H          2.55395       -3.06344        2.17108
H          0.56095       -3.51238        3.21056
H          1.70839       -4.05813        4.46901
H          0.60568        0.05413        4.08686
H          2.21602       -0.45433        4.69197
H         -0.35540       -2.12990        4.66578
H          1.01118       -2.09654        5.83071
C          3.37950        2.52269       -0.50896
C          2.24833        3.21295        0.21191
C          2.00243        2.34459        1.50337
C          3.18432        1.32612        1.93639
C          3.74693        0.42426        0.71753
N          3.07418        0.99394       -0.42863
C          4.60307        3.27171        0.26917
C          3.58699        2.89574       -1.98479
C          5.32636        0.31490        0.69990
C          3.44782       -1.09954        0.56173
H          4.52047        2.41333       -2.35126
H          2.76318        2.54610       -2.60968
H          3.68375        3.99402       -2.13155
H          5.61635        2.94904        0.41860
H          4.81691        4.23909       -0.23517
H          4.34884        3.66114        1.28461
H          3.96848       -1.67703        1.34229
H          2.42935       -1.46587        0.39664
H          3.88474       -1.45456       -0.40219
H          5.65480       -0.03482        1.70398
H          5.70798       -0.41329       -0.04687
H          6.00192        1.10604        0.45419
H          2.92960        0.75697        2.82183
H          1.58828        2.96820        2.32297
H          2.45026        4.28446        0.45429
H          1.40702        3.38834       -0.45121
H          1.20616        1.70484        1.18070
H          4.00525        1.93156        2.35016
Li         1.49909       -0.07502        0.95928
C         -0.03449        0.30452       -4.12304
C         -0.25047       -0.14397       -5.59787
C         -0.75068       -1.58292       -5.70472
C          0.27849       -2.49150       -5.02153
C          0.49094       -2.09038       -3.53776
N          0.82943       -0.63922       -3.35571
C          0.67406        1.66014       -4.14624
C         -1.37850        0.52174       -3.41978
C         -0.76959       -2.46486       -2.76604
C          1.67355       -2.90653       -2.97780
H         -2.10951       -0.28621       -3.51273
H         -1.13697        0.62062       -2.36234
H         -1.90195        1.42488       -3.79756
H          0.08566        2.40972       -4.71734
H          0.78197        2.03165       -3.11302
H          1.67485        1.56663       -4.62049
H          2.58686       -2.72320       -3.58053
H          1.90465       -2.61659       -1.93453
H          1.45671       -3.99777       -3.01067
H         -0.81578       -3.54583       -2.51098
H         -0.74319       -1.79906       -1.91515
H         -1.73289       -2.27439       -3.25146
H         -0.05095       -3.55433       -5.09377
H         -1.76438       -1.68039       -5.26877
H         -0.96558        0.53819       -6.10858
H          0.71643       -0.09719       -6.14335
H         -0.85611       -1.87390       -6.77165
H          1.23510       -2.39437       -5.57580
Li         2.56411       -0.52161       -4.24553

-H 0
6-31g(d,p)
****
-Li 0
6-31g(d,p)
****
-C 0
6-31g(d,p)
****
-N 0
6-31+g(d,p)
****
-O 0
6-31+g(d,p)
****


