%chk=speciation20.chk
%nprocshared=16
%mem=32GB
#p opt PM7/gen scf=xqc 

 speciation study

0 1
C         -1.60380        2.39296       -1.02581
C         -0.83247        3.69007       -0.80339
C          0.48128        3.76182       -1.56624
C          1.33333        2.53775       -1.20538
C          0.53604        1.22978       -1.41107
N         -0.73879        1.24799       -0.58484
C         -2.80919        2.42816       -0.12503
C         -2.21909        2.34503       -2.46737
C          0.38044        0.94774       -2.95059
C          1.34238        0.07921       -0.91343
H         -1.58933        2.72602       -3.27648
H         -2.60789        1.33317       -2.71323
H         -3.06554        3.05799       -2.55301
H         -3.41214        3.34682       -0.25006
H         -3.47882        1.62014       -0.40725
H         -2.43702        2.36106        0.90346
H          1.47336        0.30585        0.15688
H          0.79031       -0.87797       -1.07859
H          2.33168        0.00685       -1.42140
H          1.36656        0.70546       -3.40557
H         -0.30324        0.09930       -3.16516
H          0.12085        1.80781       -3.57274
H          2.27356        2.54398       -1.80145
H          0.28245        3.83670       -2.64921
H         -1.45522        4.59408       -0.96422
H         -0.51912        3.61230        0.20915
H          1.02746        4.68012       -1.25720
H          1.61036        2.61273       -0.13051
Li        -0.70292        1.14897        1.95466
C          1.03262        3.74631        3.69273
C          0.14755        4.50506        4.63193
C         -0.70301        5.24321        3.65125
C         -0.59226        4.36365        2.40083
O          0.12576        3.16307        2.71521
H          1.77010        4.41791        3.18350
H          1.71871        3.16650        4.31283
H         -0.46749        3.74042        5.15828
H          0.64778        5.15338        5.38327
H         -1.59055        4.20333        1.96636
H          0.04408        4.94803        1.68003
H         -1.72898        5.37078        4.04884
H         -0.26279        6.24369        3.42764
C         -3.80137        1.49829        3.85087
C         -5.35313        1.34051        3.75350
C         -5.76863       -0.10580        3.56183
C         -5.20046       -0.54267        2.23151
C         -3.64376       -0.44504        2.18062
N         -3.07901        0.90057        2.62270
C         -3.54198        3.01854        3.88115
C         -3.39530        0.98787        5.25875
C         -3.02135       -1.56657        2.97932
C         -3.27740       -0.75138        0.71225
H         -3.45993       -0.09869        5.41453
H         -2.42912        1.39316        5.58652
H         -4.07584        1.41103        6.02866
H         -4.06984        3.50376        4.73666
H         -2.46250        3.18230        4.00490
H         -3.88266        3.51734        2.95184
H         -3.94780       -0.24920        0.00081
H         -2.21492       -0.51798        0.55015
H         -3.45677       -1.81707        0.45083
H         -3.28611       -2.56780        2.57225
H         -1.94934       -1.39380        2.88657
H         -3.32302       -1.59660        4.02898
H         -5.53850       -1.57518        1.99170
H         -5.43183       -0.75713        4.39415
H         -5.85083        1.74357        4.66528
H         -5.75886        1.93091        2.90490
H         -6.88063       -0.16719        3.51474
H         -5.64688        0.12656        1.45903
Li        -1.56017       -0.40041       -1.27336
C          1.16201       -2.07182        2.54617
C          1.71179       -3.05159        3.64529
C          0.97553       -2.96615        4.95616
C          1.30072       -1.58929        5.45423
C          0.75132       -0.48198        4.49962
N          0.73800       -0.67534        2.99476
C          2.35730       -2.00739        1.57285
C         -0.01970       -2.76253        1.86812
C         -0.66115       -0.20674        4.91538
C          1.58804        0.72356        4.77669
H         -0.77013       -3.05195        2.62512
H         -0.45970       -2.10962        1.08715
H          0.29155       -3.71875        1.40063
H          2.62804       -3.02175        1.21097
H          2.17196       -1.47144        0.68151
H          3.24889       -1.55429        2.06102
H          2.67617        0.53872        4.63784
H          1.26731        1.34969        3.96563
H          1.42158        1.15350        5.79390
H         -0.70368        0.11744        5.97874
H         -1.03878        0.58407        4.23828
H         -1.26006       -1.12387        4.85604
H          0.93569       -1.44087        6.49835
H         -0.11230       -3.15260        4.85757
H          1.71653       -4.09700        3.26798
H          2.78582       -2.83997        3.87292
H          1.40278       -3.70918        5.66511
H          2.41205       -1.52667        5.54538
Li        -4.23082        2.05107        1.53176

-H 0
6-31g(d,p)
****
-Li 0
6-31g(d,p)
****
-C 0
6-31g(d,p)
****
-N 0
6-31+g(d,p)
****
-O 0
6-31+g(d,p)
****


