%chk=speciation48.chk
%nprocshared=16
%mem=32GB
#p opt PM7/gen scf=xqc 

 speciation study

0 1
C          1.02069        0.68931       -0.80377
C          1.63890       -0.71254       -0.61200
C          0.90695       -1.78792       -1.38192
C         -0.54295       -1.75791       -0.93051
C         -1.18452       -0.34700       -1.10107
N         -0.43619        0.76520       -0.34867
C          1.80313        1.60118        0.06237
C          1.29400        1.18369       -2.25782
C         -1.42082       -0.07989       -2.60824
C         -2.56350       -0.43316       -0.56843
H          1.21529        0.44070       -3.05599
H          0.64324        2.04178       -2.46486
H          2.34953        1.50280       -2.40161
H          2.89220        1.62134       -0.17176
H          1.38576        2.52759       -0.21597
H          1.63301        1.40185        1.12778
H         -2.38707       -0.76670        0.44976
H         -3.06495        0.55495       -0.69094
H         -3.18238       -1.21112       -1.06831
H         -2.19889       -0.74781       -3.03784
H         -1.76296        0.95331       -2.73031
H         -0.59238       -0.32581       -3.27143
H         -1.11216       -2.52536       -1.50063
H          1.00902       -1.64603       -2.47401
H          2.71849       -0.72315       -0.87981
H          1.52080       -0.98345        0.42965
H          1.34793       -2.78080       -1.14604
H         -0.56376       -2.04600        0.14307
Li        -0.35785        1.01536        2.19678
C          0.74410       -1.41193        4.25372
C          1.96270       -1.11359        5.08671
C          3.01986       -0.99624        4.03635
C          2.20588       -0.85534        2.74239
O          0.84873       -0.58953        3.08271
H          0.72122       -2.49288        3.96983
H         -0.11451       -1.29212        4.87930
H          1.79779       -0.10319        5.52457
H          2.18985       -1.82171        5.92017
H          2.69753       -0.13578        2.08998
H          2.21937       -1.86301        2.24835
H          3.64371       -0.10538        4.26210
H          3.66122       -1.90343        3.96629
C          1.52217        3.90434        2.09132
C          2.75694        3.95913        2.98218
C          2.21885        3.45355        4.28141
C          0.73540        3.47273        4.03377
O          0.55730        3.01425        2.69001
H          1.04237        4.91463        2.05481
H          1.84440        3.86589        1.07007
H          3.56555        3.27295        2.64551
H          3.12714        5.00893        3.00897
H          0.24508        2.93438        4.82338
H          0.32998        4.51625        4.13463
H          2.47960        2.37522        4.37441
H          2.57059        4.00182        5.18214
C         -2.36842        1.44917        4.84147
C         -3.55176        1.06796        5.78596
C         -3.90185       -0.40989        5.70431
C         -4.36399       -0.63375        4.29052
C         -3.26666       -0.31875        3.22300
N         -2.45785        0.92788        3.43217
C         -2.40964        2.99184        4.77541
C         -1.08363        0.97835        5.52635
C         -2.32306       -1.52107        3.10747
C         -4.09893       -0.10651        1.94688
H         -1.21101       -0.02082        5.94856
H         -0.23840        0.97884        4.81918
H         -0.85182        1.60348        6.41513
H         -2.22052        3.44848        5.77015
H         -1.71771        3.40233        4.04002
H         -3.40456        3.35222        4.44023
H         -5.04507        0.44661        2.09468
H         -3.58584        0.63914        1.33017
H         -4.36999       -1.07015        1.45824
H         -2.86455       -2.43819        2.79702
H         -1.49461       -1.33585        2.39635
H         -1.92537       -1.75640        4.09951
H         -4.75807       -1.66514        4.14820
H         -3.07071       -1.08493        5.97778
H         -3.31513        1.35087        6.83575
H         -4.46901        1.63975        5.51600
H         -4.74717       -0.62163        6.39289
H         -5.24209        0.04149        4.17034
Li        -1.47828        2.69404       -1.00613
C         -4.22715        4.23580       -0.25935
C         -4.06122        5.60127        0.42218
C         -3.10342        5.30930        1.56395
C         -2.86685        3.81579        1.41188
O         -3.06654        3.46852        0.06081
H         -5.11446        3.73236        0.20955
H         -4.45826        4.31104       -1.33755
H         -3.55254        6.29254       -0.27245
H         -5.01688        6.08910        0.72300
H         -1.90905        3.45267        1.81638
H         -3.68206        3.35524        1.98285
H         -2.15734        5.86439        1.40713
H         -3.47920        5.58046        2.57589
C         -1.42683        3.63162       -4.18675
C         -1.27678        4.84143       -5.14089
C          0.07850        5.53838       -4.91633
C          0.01237        6.17443       -3.55354
C         -0.33493        5.19110       -2.38663
N         -1.18905        4.00397       -2.73379
C         -2.86073        3.04412       -4.25201
C         -0.46062        2.54817       -4.77155
C          0.88974        4.67477       -1.68972
C         -1.07785        6.05440       -1.35637
H         -0.50023        1.57800       -4.30180
H         -0.76389        2.33271       -5.82387
H          0.60332        2.83569       -4.82315
H         -3.00399        2.34274       -5.10363
H         -3.08989        2.47701       -3.32788
H         -3.63049        3.83782       -4.30474
H         -1.98065        6.52108       -1.79905
H         -1.37438        5.41726       -0.51385
H         -0.42260        6.86930       -0.97079
H          1.54202        5.47801       -1.29269
H          0.47496        4.15115       -0.81348
H          1.49319        4.01004       -2.33285
H          0.93341        6.75312       -3.31062
H          0.95959        4.87601       -4.99829
H         -1.36623        4.52082       -6.20257
H         -2.09203        5.57924       -4.96620
H          0.22048        6.34555       -5.66836
H         -0.79154        6.93491       -3.65790
Li        -4.03401        1.97329        3.07960

-H 0
6-31g(d,p)
****
-Li 0
6-31g(d,p)
****
-C 0
6-31g(d,p)
****
-N 0
6-31+g(d,p)
****
-O 0
6-31+g(d,p)
****


