%chk=speciation82.chk
%nprocshared=16
%mem=32GB
#p opt PM7/gen scf=xqc 

 speciation study

0 1
C         -1.21177       -1.14788        0.95530
C         -2.63067       -1.14208        0.32042
C         -3.49874       -0.05567        0.94470
C         -2.78850        1.29179        0.99686
C         -1.31191        1.28243        1.56933
N         -0.44623        0.16918        0.89036
C         -1.37296       -1.76320        2.33842
C         -0.39518       -2.10499        0.21363
C         -1.38467        1.16780        3.12860
C         -0.86642        2.76143        1.41045
H         -0.31302       -1.68549       -0.77490
H          0.59636       -2.17445        0.69510
H         -0.88146       -3.10405        0.15442
H         -1.53712       -2.86160        2.29021
H         -0.47927       -1.51229        2.86742
H         -2.25743       -1.47026        2.90579
H         -1.28067        3.24417        0.52305
H         -1.36415        3.44626        2.14035
H          0.18583        2.97340        1.59041
H         -0.37752        1.27100        3.56189
H         -1.97986        1.99533        3.56363
H         -1.90132        0.33630        3.57297
H         -2.79041        1.70359       -0.01481
H         -4.45028        0.02675        0.37012
H         -3.12523       -2.13046        0.44828
H         -2.60359       -1.08859       -0.76577
H         -3.76458       -0.33043        1.97387
H         -3.42900        2.00851        1.56559
Li         1.29868       -0.10556       -0.79809
C          1.44325       -3.55953       -1.49110
C          2.80141       -4.18105       -1.49655
C          3.48712       -3.41264       -2.59551
C          2.52995       -2.22275       -2.83144
O          1.65731       -2.14492       -1.70898
H          0.80540       -3.98487       -2.31510
H          0.97606       -3.89328       -0.55856
H          3.24049       -3.88787       -0.52158
H          2.83452       -5.29308       -1.56391
H          3.05099       -1.28919       -3.09720
H          1.90312       -2.48962       -3.72877
H          4.48565       -3.10681       -2.21964
H          3.59694       -4.01893       -3.52371
C          2.10305       -2.67048        3.15541
C          1.10908       -3.20417        4.16401
C          0.78155       -1.98321        5.01790
C          1.57635       -0.87647        4.33554
O          1.78062       -1.30545        2.99283
H          3.13443       -2.74240        3.57257
H          2.05964       -3.25894        2.21708
H          0.20446       -3.48475        3.59096
H          1.44198       -4.10844        4.70511
H          1.12783        0.11979        4.44089
H          2.56485       -0.81989        4.84653
H         -0.31170       -1.78725        4.95479
H          1.04433       -2.06664        6.08797
C          3.69160        1.99193       -0.06136
C          2.38890        2.38028        0.59531
C          2.42982        1.75793        2.07707
C          3.61486        0.70607        2.34948
C          4.11817       -0.08365        1.08731
N          3.41509        0.50795        0.00230
C          4.68978        2.96253        0.73361
C          4.32074        2.13341       -1.48032
C          5.67034       -0.07419        0.98833
C          3.78270       -1.56869        0.90450
H          5.34632        1.69982       -1.46200
H          3.79215        1.53111       -2.24018
H          4.47700        3.18922       -1.80739
H          5.77598        2.83748        0.59565
H          4.52930        3.98870        0.32678
H          4.49433        3.18757        1.79928
H          4.23537       -2.20128        1.68749
H          2.71580       -1.75213        0.75880
H          4.21681       -1.90220       -0.06505
H          6.09094       -0.56172        1.89291
H          6.04293       -0.60357        0.08633
H          6.14195        0.90132        0.95998
H          3.62629        0.15177        3.28584
H          2.50627        2.58187        2.81318
H          2.15865        3.46845        0.57389
H          1.60103        1.83702        0.03873
H          1.44273        1.32295        2.28250
H          4.46414        1.34256        2.62587
Li         1.63230       -0.22993        1.23546
C          2.21219        1.68970       -6.87793
C          0.90881        1.44655       -7.62662
C          0.70124       -0.04885       -7.46428
C          1.95259       -0.49883       -6.73539
O          2.41492        0.61012       -5.99366
H          3.05590        1.67166       -7.60555
H          2.26908        2.68300       -6.38969
H          0.06561        1.98054       -7.14194
H          0.98754        1.79567       -8.67734
H          1.77555       -1.39665       -6.10649
H          2.73842       -0.76471       -7.47821
H         -0.14811       -0.21821       -6.78005
H          0.45672       -0.60894       -8.39063
C          0.60809        2.63885       -2.71907
C          0.03133        3.20712       -4.07241
C         -1.36648        2.78759       -4.34597
C         -1.27443        1.28998       -4.42572
C         -0.73838        0.57878       -3.12300
N          0.60854        1.05812       -2.53228
C          2.00171        3.24687       -2.77963
C         -0.10717        3.44600       -1.63140
C         -1.85263        0.75300       -2.13851
C         -0.65461       -0.88846       -3.55877
H         -1.19271        3.39653       -1.60818
H          0.30719        3.14895       -0.70374
H          0.09911        4.53357       -1.70159
H          2.00745        4.32021       -3.06160
H          2.36643        3.33435       -1.77095
H          2.63939        2.74935       -3.54497
H          0.11471       -1.00864       -4.34721
H         -0.44517       -1.58847       -2.76634
H         -1.62892       -1.22304       -3.99643
H         -2.76481        0.19565       -2.44121
H         -1.41412        0.49343       -1.19391
H         -2.23744        1.76387       -2.04504
H         -2.28670        0.91783       -4.70795
H         -2.08480        3.17396       -3.59801
H          0.03811        4.32199       -4.07924
H          0.66283        2.89243       -4.91907
H         -1.69863        3.21543       -5.31826
H         -0.60316        1.06804       -5.24893
Li         1.52322        0.83127       -4.28499

-H 0
6-31g(d,p)
****
-Li 0
6-31g(d,p)
****
-C 0
6-31g(d,p)
****
-N 0
6-31+g(d,p)
****
-O 0
6-31+g(d,p)
****


