%chk=speciation106.chk
%nprocshared=16
%mem=32GB
#p opt PM7/gen scf=xqc 

 speciation study

0 1
C          0.41805        0.76363       -0.83024
C          0.65402       -0.72639       -0.54687
C         -0.35238       -1.63900       -1.26551
C         -1.80104       -1.25466       -0.94428
C         -2.05656        0.26492       -1.06178
N         -0.96676        1.08309       -0.37093
C          1.38289        1.65406       -0.02416
C          0.76803        1.09517       -2.31052
C         -2.28072        0.63166       -2.54930
C         -3.41802        0.54472       -0.40941
H          0.39683        0.39743       -3.06147
H          0.47781        2.13441       -2.57026
H          1.86534        0.99669       -2.46496
H          2.44504        1.41304       -0.24701
H          1.25077        2.72005       -0.30564
H          1.20985        1.55047        1.06024
H         -3.31956        0.37536        0.66700
H         -3.78325        1.55895       -0.64843
H         -4.19910       -0.14355       -0.78711
H         -3.22439        0.17394       -2.91555
H         -2.35470        1.73013       -2.68451
H         -1.55873        0.20715       -3.24931
H         -2.50199       -1.83831       -1.57619
H         -0.19148       -1.58094       -2.35499
H          1.68537       -1.03081       -0.82520
H          0.50338       -0.85010        0.52710
H         -0.18319       -2.69605       -0.95926
H         -2.06644       -1.59661        0.05113
Li        -0.68418        1.14518        1.87441
C         -3.18380        3.06356        2.71128
C         -3.73845        4.22861        3.58218
C         -2.86140        5.47025        3.51356
C         -1.47209        5.06953        3.99166
C         -0.84419        3.93687        3.12622
N         -1.73868        2.74664        2.99667
C         -4.04783        1.84226        3.09098
C         -3.38953        3.39495        1.22625
C         -0.41302        4.48251        1.74902
C          0.42462        3.46815        3.84747
H         -3.14319        4.42478        0.94072
H         -2.71788        2.75619        0.64759
H         -4.45462        3.28173        0.92821
H         -5.12196        2.03489        2.87138
H         -3.76468        0.92846        2.56956
H         -3.96201        1.62421        4.17735
H          0.18054        3.08159        4.85927
H          0.89518        2.65616        3.26914
H          1.15087        4.30292        3.96022
H          0.39817        5.23256        1.86024
H         -0.05150        3.65233        1.12887
H         -1.19824        5.00206        1.18968
H         -0.80983        5.96551        4.00696
H         -2.83292        5.90648        2.49660
H         -4.77986        4.48250        3.27721
H         -3.77757        3.91536        4.65028
H         -3.28272        6.25186        4.18290
H         -1.57793        4.72005        5.04403
Li        -1.24918        2.95215       -0.87295
C          2.06828       -0.56627        3.21833
C          2.47316       -1.57333        4.33365
C          1.60977       -2.82053        4.31875
C          0.21703       -2.34904        4.66810
C         -0.34769       -1.36229        3.61380
N          0.56618       -0.24964        3.18970
C          2.86197        0.72565        3.50976
C          2.62236       -1.12670        1.89170
C         -0.78254       -2.13035        2.38707
C         -1.60976       -0.73452        4.22957
H          2.12468       -2.05211        1.55627
H          2.59419       -0.36370        1.11038
H          3.70211       -1.37198        1.98548
H          3.95480        0.51365        3.54875
H          2.71422        1.48354        2.71868
H          2.56062        1.15743        4.48705
H         -1.36222       -0.17837        5.15675
H         -2.05507       -0.02598        3.51274
H         -2.36394       -1.51620        4.47266
H         -1.55620       -2.89463        2.61105
H         -1.21476       -1.34531        1.77448
H          0.04716       -2.63344        1.85822
H         -0.46527       -3.22420        4.77857
H          1.65326       -3.36046        3.34762
H          3.54374       -1.87055        4.22446
H          2.38315       -1.10518        5.33750
H          1.96183       -3.52446        5.10288
H          0.26745       -1.85837        5.66121
Li        -1.83840        2.09829        4.83704

-H 0
6-31g(d,p)
****
-Li 0
6-31g(d,p)
****
-C 0
6-31g(d,p)
****
-N 0
6-31+g(d,p)
****
-O 0
6-31+g(d,p)
****


