%chk=speciation104.chk
%nprocshared=16
%mem=32GB
#p opt PM7/gen scf=xqc 

 speciation study

0 1
C -2.43929 -1.49106 -0.05387
C -3.79395 -1.02556 0.51582
C -3.79358 0.23260 1.35596
C -2.44605 1.05329 1.25040
C -1.29466 0.14748 1.33769
N -1.20215 -0.72432 0.22001
C -2.16794 -2.79550 0.54503
C -2.62969 -1.58495 -1.50658
C -1.34693 -0.45098 2.65683
C -0.01185 0.69898 1.25383
H -3.06354 -0.83278 -2.04084
H -1.71837 -1.22665 -1.98295
H -3.31073 -2.43203 -1.76969
H -2.90726 -3.61239 0.44343
H -1.12732 -3.05762 0.45544
H -2.07501 -2.53352 1.51411
H 0.43506 0.76543 0.26736
H -0.03616 1.49379 2.00777
H 0.64690 -0.11511 1.47022
H -0.66568 -1.20682 2.47754
H -1.07580 0.23757 3.48702
H -2.27143 -0.89575 2.85777
H -2.18889 1.46830 0.31604
H -4.72700 0.77184 1.16456
H -4.71569 -1.47705 0.07109
H -4.36943 -0.66041 -0.36988
H -4.01476 -0.11205 2.37272
H -2.39886 1.85897 2.00680
Li 0.42307 -2.14513 0.69780
C -1.06433 -4.13952 2.96822
C -2.23069 -3.43270 3.71975
C -1.45288 -2.59052 4.71573
C -0.01155 -2.56138 4.11126
O -0.02781 -3.19642 2.77984
H -0.68132 -4.94341 3.62955
H -1.30516 -4.65299 2.02552
H -2.91437 -2.74967 3.19096
H -3.06661 -4.07498 4.02829
H 0.45469 -1.54180 4.15302
H 0.62871 -3.11029 4.82558
H -2.20946 -1.79770 4.45715
H -1.55378 -1.61411 5.26932
C 1.88648 -3.49438 -2.82129
C 1.66263 -2.97252 -3.34132
C -0.63978 -3.18073 -2.22001
C -1.07026 -4.29309 -1.50935
O 0.09287 -3.34819 -1.99878
H 2.32544 -4.57858 -3.10678
H 2.81313 -3.35071 -2.34384
H 1.41045 -3.46498 -4.37088
H 2.31696 -2.96279 -4.29654
H -0.88425 -4.71194 -0.52315
H -1.54729 -5.10320 -2.11042
H -1.69552 -2.69189 -2.65521
H -1.47007 -3.66570 -3.00813
C 3.71467 -1.79133 2.23069
C 4.13487 -2.47765 1.08179
C 4.50733 -1.26493 0.28946
C 4.78204 0.12213 0.84371
C 3.36622 0.54086 1.81490
N 2.68237 -0.74944 1.60475
C 5.22167 -1.49751 2.97203
C 3.04869 -2.67569 3.18284
C 4.01493 0.82175 3.21369
C 2.16381 1.26202 2.60203
H 2.72226 -2.00781 4.00055
H 2.23564 -3.16695 2.65287
H 3.78275 -3.42121 3.54794
H 5.20607 -1.30008 4.04825
H 6.00907 -2.24842 2.76299
H 5.95480 -0.73197 2.71149
H 1.93100 2.29212 2.39836
H 1.58745 0.51732 3.22729
H 2.01549 1.95596 3.46845
H 5.00377 0.97769 3.01874
H 3.94803 1.77760 3.80047
H 3.72919 0.11440 4.00844
H 5.12999 0.57161 -0.13218
H 5.02892 -1.60970 -0.24905
H 4.93133 -3.23557 1.28871
H 3.31119 -3.03695 0.60669
H 3.74031 -0.99216 -0.36287
H 5.84131 0.16241 1.06306
Li -0.27001 0.50892 -1.42944
C -0.24231 -2.20367 -4.16947
C 0.15592 -4.77593 -3.65295
C 1.27101 -4.72687 -1.09214
C 1.37267 -2.12340 -1.03685
O 0.49089 -1.29696 -2.53646
H 0.28321 -1.87333 -5.11564
H -1.24679 -1.81687 -4.44309
H -0.76986 -5.30367 -3.90478
H 0.78540 -5.34199 -4.34949
H 1.46388 -1.27429 -0.32600
H 2.36908 -2.02421 -1.02063
H 1.43972 -5.28620 -0.16621
H 2.31160 -5.09946 -1.15860
C -2.71899 3.14614 -1.16498
C -4.10066 2.73137 -0.81632
C -4.15775 1.40364 -1.53748
C -3.14597 1.56592 -2.63386
O -2.06866 2.07155 -1.90778
H -2.86346 4.04896 -1.79874
H -2.19427 3.46778 -0.24279
H -4.21288 2.16565 0.12622
H -4.21754 3.21848 0.18927
H -2.80239 0.70255 -3.22190
H -3.50396 2.25821 -3.41515
H -3.58819 0.73428 -0.96926
H -5.14174 0.93200 -1.66811
C 2.48995 2.94640 -2.57679
C 2.75750 2.00159 -3.68053
C 1.39329 1.29296 -3.85286
C 0.16096 1.87195 -2.93717
C 0.54196 2.59395 -1.35112
N 1.82233 2.03558 -1.53143
C 1.72216 4.17859 -3.33596
C 3.68421 3.57375 -1.91801
C -0.00772 4.12833 -1.27506
C 1.09098 2.88154 0.13933
H 3.31583 4.12933 -1.01594
H 4.35549 2.76104 -1.62777
H 4.19235 4.28466 -2.58875
H 1.86074 5.16386 -2.85406
H 2.00213 4.30028 -4.39225
H 0.65303 4.13215 -3.57915
H 0.19190 2.87432 0.79345
H 2.12013 2.61290 0.48340
H 0.85244 3.55328 1.00414
H -0.80143 4.10579 -1.96114
H -0.44153 4.55264 -0.32099
H 0.31417 5.09856 -1.63383
H -0.49880 0.98860 -3.06295
H 1.18305 0.95039 -4.88536
H 3.15445 2.52161 -4.57353
H 3.54238 1.27630 -3.35569
H 1.66347 0.35436 -3.36455
H -0.48195 2.51772 -3.55862
Li 3.52818 0.77707 -0.50362
C 6.38354 2.56777 0.62111
C 6.77659 2.57629 2.09888
C 5.66202 3.42441 2.70152
C 4.58850 3.46288 1.57818
O 4.93329 2.55826 0.53170
H 6.77286 3.48402 0.14818
H 6.91046 1.73496 0.11116
H 6.78429 1.51980 2.45498
H 7.80803 2.85055 2.36984
H 3.59315 3.33823 1.96931
H 4.58139 4.48474 1.14908
H 5.59026 2.81939 3.60883
H 5.46476 4.16753 3.50567
C 4.57067 -1.82635 -2.52701
C 5.16692 -3.23231 -1.80540
C 6.56906 -2.77469 -1.18497
C 6.62987 -1.20477 -1.68371
O 5.26334 -0.64795 -2.06267
H 4.36719 -1.92177 -3.62092
H 3.52683 -1.44220 -2.46561
H 4.54736 -3.76087 -0.99965
H 5.04401 -4.24030 -2.30039
H 7.15289 -0.50291 -0.97016
H 7.36725 -1.16694 -2.49683
H 6.57671 -2.72931 -0.03225
H 7.36311 -3.54370 -0.94626

-H 0
6-31g(d,p)
****
-Li 0
6-31g(d,p)
****
-C 0
6-31g(d,p)
****
-N 0
6-31+g(d,p)
****
-O 0
6-31+g(d,p)
****


