%chk=speciation0.chk
%nprocshared=16
%mem=32GB
#p opt PM7/gen scf=xqc 

 speciation study

0 1
C          0.72212        1.26386       -0.01455
C          1.41336       -0.02922        0.48909
C          0.73141       -1.28720       -0.05807
C         -0.73696       -1.28587        0.38528
C         -1.48505       -0.03147       -0.12585
N         -0.74200        1.19900        0.24700
C          1.27580        2.46419        0.77194
C          1.06578        1.53364       -1.49961
C         -1.76971       -0.11776       -1.64443
C         -2.85779        0.05069        0.56106
H          0.82823        0.72141       -2.19249
H          0.57539        2.46196       -1.84612
H          2.16161        1.67755       -1.61802
H          2.37372        2.56376        0.62213
H          0.79061        3.40591        0.43008
H          1.07773        2.34818        1.85854
H         -2.74178        0.12643        1.66247
H         -3.41452        0.94910        0.21089
H         -3.47076       -0.85029        0.33502
H         -2.46258       -0.96482       -1.85486
H         -2.24382        0.81435       -2.01071
H         -0.89469       -0.33902       -2.26946
H         -1.24981       -2.21203        0.04491
H          0.81683       -1.34202       -1.16147
H          2.49344       -0.02316        0.22050
H          1.34360       -0.07111        1.59782
H          1.23647       -2.18589        0.35673
H         -0.74562       -1.28860        1.50037
Li        -1.73783        2.77651       -0.44572
C         -3.77421        4.01664       -1.99626
C         -3.18971        3.64090       -3.35482
C         -1.74299        4.04802       -3.21145
C         -1.75348        4.90745       -1.97000
O         -2.70865        4.31439       -1.12104
H         -4.35069        4.96657       -2.11523
H         -4.48387        3.26564       -1.59484
H         -3.23170        2.54605       -3.54225
H         -3.73310        4.18558       -4.15787
H         -0.74940        4.94383       -1.49625
H         -2.06513        5.95435       -2.19628
H         -1.19663        3.12572       -2.93463
H         -1.25956        4.47735       -4.11619

-H 0
6-31g(d,p)
****
-Li 0
6-31g(d,p)
****
-C 0
6-31g(d,p)
****
-N 0
6-31+g(d,p)
****
-O 0
6-31+g(d,p)
****


