%chk=speciation93.chk
%nprocshared=16
%mem=32GB
#p opt PM7/gen scf=xqc 

 speciation study

0 1
C         -1.44007       -1.05684        1.08289
C         -2.87150       -1.09278        0.51598
C         -3.75177       -0.07836        1.23268
C         -3.08065        1.29294        1.30292
C         -1.59567        1.30768        1.82478
N         -0.71763        0.27831        1.03678
C         -1.47770       -1.75763        2.44818
C         -0.62998       -1.89375        0.23404
C         -1.60028        1.10377        3.37213
C         -1.18242        2.80425        1.74526
H         -0.60950       -1.51650       -0.80433
H          0.35869       -1.78684        0.69338
H         -1.02667       -2.93110        0.22949
H         -1.59750       -2.85699        2.34730
H         -0.56648       -1.50189        2.95347
H         -2.34306       -1.54884        3.08247
H         -1.81385        3.43432        2.41020
H         -1.43195        3.28190        0.82135
H         -0.17609        3.02435        2.09352
H         -0.58846        1.11741        3.78728
H         -2.14408        1.92429        3.88858
H         -2.14811        0.26765        3.77733
H         -3.10213        1.72150        0.30716
H         -4.72123       -0.01548        0.69051
H         -3.31088       -2.11051        0.61587
H         -2.89163       -0.95693       -0.55724
H         -3.96298       -0.43307        2.24945
H         -3.72313        1.96175        1.91396
Li         0.97243        0.06895       -0.82264
C          1.28351       -3.54551       -0.67043
C          2.34409       -4.56634       -0.99616
C          2.98740       -3.95018       -2.17978
C          2.04837       -2.78225       -2.54889
O          1.54885       -2.25982       -1.32459
H          0.33066       -3.95927       -1.09233
H          1.22302       -3.58355        0.42278
H          1.87162       -5.57788       -1.14513
H          3.10490       -4.65380       -0.21105
H          2.62831       -2.05078       -3.11788
H          1.19407       -3.20382       -3.13408
H          3.92980       -3.48038       -1.81246
H          3.24745       -4.68404       -2.96278
C          2.01552       -2.67485        3.27326
C          1.01512       -3.20268        4.28090
C          0.72122       -1.99044        5.14490
C          1.53184       -0.89698        4.47020
O          1.69467       -1.28445        3.12009
H          3.05081       -2.76218        3.68694
H          1.99349       -3.26962        2.34990
H          0.10482       -3.45630        3.70562
H          1.31587       -4.13186        4.81099
H          1.10906        0.10781        4.61168
H          2.53251       -0.87450        4.96148
H         -0.36565       -1.76139        5.08900
H          1.00944       -2.08324        6.21146
C          3.15883        2.18074        0.24749
C          1.96624        2.42985        1.08913
C          2.20419        1.74496        2.49276
C          3.48273        0.77394        2.56586
C          3.88824        0.07512        1.21313
N          3.05897        0.68684        0.17027
C          4.25218        3.13198        0.95354
C          3.23842        2.56380       -1.18835
C          5.45763        0.16669        1.02596
C          3.65840       -1.42111        1.05046
H          4.22074        2.23966       -1.57768
H          2.46044        1.98840       -1.73329
H          3.18344        3.65503       -1.31255
H          4.07591        3.35996        2.02899
H          4.14161        4.16662        0.57339
H          5.33598        2.99840        0.84085
H          4.19672       -2.02265        1.81353
H          2.60573       -1.66976        0.96178
H          4.07377       -1.75237        0.05415
H          5.94666       -0.19467        1.96625
H          5.85449       -0.43565        0.18943
H          5.90314        1.13468        0.85657
H          3.61582        0.15365        3.45753
H          2.30345        2.52484        3.27658
H          1.67963        3.50251        1.12984
H          1.15329        1.84321        0.62608
H          1.26861        1.24749        2.75056
H          4.30196        1.46493        2.79935
Li         1.37027       -0.09652        1.44707
C          0.38079        1.67322       -7.91245
C          1.34299        2.35865       -8.84514
C          1.41100        3.71729       -8.24821
C          1.02599        3.45474       -6.77586
O          0.74479        2.06743       -6.59183
H         -0.68056        1.95470       -8.10495
H          0.49034        0.62842       -8.16928
H          2.32766        1.86003       -8.70921
H          1.06948        2.31716       -9.92370
H          1.80982        3.82503       -6.09809
H          0.08998        4.02939       -6.61501
H          0.65012        4.37649       -8.72495
H          2.41751        4.15765       -8.41034
C          4.19427        3.00053       -4.26747
C          4.70384        3.71258       -5.50594
C          4.64063        2.62494       -6.53173
C          4.31402        1.39440       -5.73347
O          3.47559        1.81899       -4.67105
H          5.07707        2.65837       -3.67591
H          3.74416        3.75128       -3.60316
H          4.02202        4.53355       -5.82868
H          5.71648        4.12271       -5.31516
H          3.83284        0.72296       -6.44316
H          5.23944        0.92799       -5.30014
H          3.73058        2.80394       -7.12840
H          5.49985        2.55469       -7.23601
C         -0.01787        3.12901       -2.74164
C         -1.03418        3.88824       -3.67354
C         -2.40030        3.29514       -3.74652
C         -2.15984        1.86302       -4.20781
C         -1.27547        1.04172       -3.19903
N          0.11211        1.59328       -2.88260
C          1.27941        3.81647       -3.07956
C         -0.41637        3.52842       -1.34133
C         -2.12094        0.86956       -1.96892
C         -1.07864       -0.28871       -3.77293
H         -1.46914        3.34240       -1.17152
H          0.18567        2.97442       -0.65808
H         -0.29293        4.60962       -1.11864
H          1.62688        4.53239       -2.30483
H          1.90168        3.01349       -3.41182
H          1.27285        4.46802       -3.97680
H         -0.53735       -0.05539       -4.70397
H         -0.48569       -0.93443       -3.08476
H         -2.03936       -0.79371       -4.02231
H         -3.01068        0.24956       -2.21176
H         -1.48068        0.47350       -1.18200
H         -2.59565        1.76743       -1.62338
H         -3.15928        1.38141       -4.33084
H         -2.95210        3.40568       -2.79465
H         -1.11584        4.96140       -3.37145
H         -0.67101        3.87873       -4.70299
H         -3.00935        3.85324       -4.48917
H         -1.68142        1.88950       -5.20677
Li         1.45943        1.10431       -4.81472
C          2.72285       -1.50287       -5.82404
C          2.16970       -1.53508       -7.24853
C          0.67606       -1.74719       -6.99403
C          0.66413       -2.02623       -5.54238
O          1.63161       -1.09190       -5.01426
H          2.99983       -2.55217       -5.54390
H          3.70812       -1.08429       -5.59234
H          2.32602       -0.58178       -7.79141
H          2.63944       -2.36980       -7.81503
H         -0.34793       -2.05542       -5.13344
H          0.95602       -3.08794       -5.35586
H          0.11446       -0.81143       -6.93922
H          0.13326       -2.42438       -7.68153

-H 0
6-31g(d,p)
****
-Li 0
6-31g(d,p)
****
-C 0
6-31g(d,p)
****
-N 0
6-31+g(d,p)
****
-O 0
6-31+g(d,p)
****


